MODEL 1
REMARK VINA RESULT:      -5.8      0.000      0.000
REMARK  14 active torsions:
REMARK  status: ('A' for Active; 'I' for Inactive)
REMARK    1  A    between atoms: C_3  and  C_7 
REMARK    2  A    between atoms: C_6  and  C_9 
REMARK    3  A    between atoms: C_7  and  O_12 
REMARK    4  A    between atoms: C_9  and  O_11 
REMARK    5  A    between atoms: O_11  and  C_13 
REMARK    6  A    between atoms: C_13  and  C_14 
REMARK    7  A    between atoms: C_14  and  O_15 
REMARK    8  A    between atoms: O_15  and  C_16 
REMARK    9  A    between atoms: C_16  and  C_17 
REMARK   10  A    between atoms: C_21  and  C_24 
REMARK   11  A    between atoms: C_24  and  O_25 
REMARK   12  A    between atoms: O_25  and  C_27 
REMARK   13  A    between atoms: C_27  and  C_28 
REMARK   14  A    between atoms: C_28  and  O_29 
ROOT
HETATM    1  O           1       3.811 -14.966   9.562  0.00  0.00    -0.315 OA
ENDROOT
BRANCH   1   2
HETATM    2  C           1       3.543 -14.248  10.736  0.00  0.00     0.206 C 
BRANCH   2   3
HETATM    3  C           1       4.624 -14.542  11.768  0.00  0.00     0.206 C 
BRANCH   3   4
HETATM    4  O           1       5.871 -14.618  11.130  0.00  0.00    -0.315 OA
BRANCH   4   5
HETATM    5  C           1       6.548 -13.479  11.314  0.00  0.00     0.293 C 
HETATM    6  O           1       6.830 -13.117  12.432  0.00  0.00    -0.259 OA
BRANCH   5   7
HETATM    7  C           1       6.915 -12.732  10.250  0.00  0.00     0.039 A 
HETATM    8  C           1       8.032 -13.030   9.579  0.00  0.00     0.018 A 
HETATM    9  C           1       8.396 -12.291   8.526  0.00  0.00     0.019 A 
HETATM   10  C           1       7.643 -11.254   8.144  0.00  0.00     0.037 A 
HETATM   11  C           1       6.526 -10.956   8.816  0.00  0.00     0.019 A 
HETATM   12  C           1       6.162 -11.695   9.869  0.00  0.00     0.018 A 
BRANCH  10  13
HETATM   13  C           1       8.011 -10.507   7.080  0.00  0.00     0.176 C 
HETATM   14  O           1       9.159 -10.517   6.703  0.00  0.00    -0.646 OA
BRANCH  13  15
HETATM   15  O           1       7.104  -9.757   6.443  0.00  0.00    -0.773 OA
HETATM   16  H           1       6.804 -10.284   5.684  0.00  0.00     0.167 HD
ENDBRANCH  13  15
ENDBRANCH  10  13
ENDBRANCH   5   7
ENDBRANCH   4   5
ENDBRANCH   3   4
ENDBRANCH   2   3
ENDBRANCH   1   2
BRANCH   1  17
HETATM   17  C           1       3.688 -14.162   8.499  0.00  0.00     0.293 C 
HETATM   18  O           1       2.712 -13.458   8.383  0.00  0.00    -0.259 OA
BRANCH  17  19
HETATM   19  C           1       4.654 -14.136   7.556  0.00  0.00     0.039 A 
HETATM   20  C           1       4.644 -13.188   6.614  0.00  0.00     0.018 A 
HETATM   21  C           1       5.602 -13.162   5.680  0.00  0.00     0.018 A 
HETATM   22  C           1       6.569 -14.084   5.689  0.00  0.00     0.039 A 
HETATM   23  C           1       6.579 -15.033   6.631  0.00  0.00     0.018 A 
HETATM   24  C           1       5.622 -15.059   7.565  0.00  0.00     0.018 A 
BRANCH  22  25
HETATM   25  C           1       7.536 -14.058   4.746  0.00  0.00     0.293 C 
HETATM   26  O           1       7.970 -15.093   4.298  0.00  0.00    -0.259 OA
BRANCH  25  27
HETATM   27  O           1       8.014 -12.887   4.310  0.00  0.00    -0.315 OA
BRANCH  27  28
HETATM   28  C           1       7.903 -12.816   2.915  0.00  0.00     0.205 C 
BRANCH  28  29
HETATM   29  C           1       7.766 -11.361   2.488  0.00  0.00     0.191 C 
BRANCH  29  30
HETATM   30  O           1       7.010 -10.663   3.439  0.00  0.00    -0.399 OA
HETATM   31  H           1       6.913  -9.782   3.120  0.00  0.00     0.209 HD
ENDBRANCH  29  30
ENDBRANCH  28  29
ENDBRANCH  27  28
ENDBRANCH  25  27
ENDBRANCH  22  25
ENDBRANCH  17  19
ENDBRANCH   1  17
TORSDOF 14
ENDMDL
MODEL 2
REMARK VINA RESULT:      -5.3      1.876      3.302
REMARK  14 active torsions:
REMARK  status: ('A' for Active; 'I' for Inactive)
REMARK    1  A    between atoms: C_3  and  C_7 
REMARK    2  A    between atoms: C_6  and  C_9 
REMARK    3  A    between atoms: C_7  and  O_12 
REMARK    4  A    between atoms: C_9  and  O_11 
REMARK    5  A    between atoms: O_11  and  C_13 
REMARK    6  A    between atoms: C_13  and  C_14 
REMARK    7  A    between atoms: C_14  and  O_15 
REMARK    8  A    between atoms: O_15  and  C_16 
REMARK    9  A    between atoms: C_16  and  C_17 
REMARK   10  A    between atoms: C_21  and  C_24 
REMARK   11  A    between atoms: C_24  and  O_25 
REMARK   12  A    between atoms: O_25  and  C_27 
REMARK   13  A    between atoms: C_27  and  C_28 
REMARK   14  A    between atoms: C_28  and  O_29 
ROOT
HETATM    1  O           1       3.181 -15.244   6.105  0.00  0.00    -0.315 OA
ENDROOT
BRANCH   1   2
HETATM    2  C           1       1.963 -15.725   6.605  0.00  0.00     0.206 C 
BRANCH   2   3
HETATM    3  C           1       2.228 -16.641   7.793  0.00  0.00     0.206 C 
BRANCH   3   4
HETATM    4  O           1       2.337 -15.872   8.961  0.00  0.00    -0.315 OA
BRANCH   4   5
HETATM    5  C           1       3.571 -15.986   9.467  0.00  0.00     0.293 C 
HETATM    6  O           1       3.977 -17.062   9.833  0.00  0.00    -0.259 OA
BRANCH   5   7
HETATM    7  C           1       4.362 -14.895   9.567  0.00  0.00     0.039 A 
HETATM    8  C           1       5.633 -14.952   9.158  0.00  0.00     0.018 A 
HETATM    9  C           1       6.417 -13.873   9.257  0.00  0.00     0.019 A 
HETATM   10  C           1       5.929 -12.737   9.766  0.00  0.00     0.037 A 
HETATM   11  C           1       4.657 -12.681  10.176  0.00  0.00     0.019 A 
HETATM   12  C           1       3.874 -13.760  10.077  0.00  0.00     0.018 A 
BRANCH  10  13
HETATM   13  C           1       6.720 -11.647   9.867  0.00  0.00     0.176 C 
HETATM   14  O           1       7.855 -11.684   9.455  0.00  0.00    -0.646 OA
BRANCH  13  15
HETATM   15  O           1       6.246 -10.525  10.423  0.00  0.00    -0.773 OA
HETATM   16  H           1       5.684 -10.809  11.163  0.00  0.00     0.167 HD
ENDBRANCH  13  15
ENDBRANCH  10  13
ENDBRANCH   5   7
ENDBRANCH   4   5
ENDBRANCH   3   4
ENDBRANCH   2   3
ENDBRANCH   1   2
BRANCH   1  17
HETATM   17  C           1       3.206 -13.908   6.174  0.00  0.00     0.293 C 
HETATM   18  O           1       2.178 -13.292   6.319  0.00  0.00    -0.259 OA
BRANCH  17  19
HETATM   19  C           1       4.381 -13.248   6.081  0.00  0.00     0.039 A 
HETATM   20  C           1       5.466 -13.876   5.618  0.00  0.00     0.018 A 
HETATM   21  C           1       6.629 -13.223   5.526  0.00  0.00     0.018 A 
HETATM   22  C           1       6.707 -11.942   5.897  0.00  0.00     0.039 A 
HETATM   23  C           1       5.622 -11.313   6.362  0.00  0.00     0.018 A 
HETATM   24  C           1       4.459 -11.966   6.453  0.00  0.00     0.018 A 
BRANCH  22  25
HETATM   25  C           1       7.882 -11.281   5.804  0.00  0.00     0.293 C 
HETATM   26  O           1       8.094 -10.324   6.510  0.00  0.00    -0.259 OA
BRANCH  25  27
HETATM   27  O           1       8.810 -11.687   4.930  0.00  0.00    -0.315 OA
BRANCH  27  28
HETATM   28  C           1       9.000 -10.706   3.946  0.00  0.00     0.205 C 
BRANCH  28  29
HETATM   29  C           1       8.566 -11.252   2.593  0.00  0.00     0.191 C 
BRANCH  29  30
HETATM   30  O           1       7.186 -11.069   2.434  0.00  0.00    -0.399 OA
HETATM   31  H           1       6.770 -11.874   2.692  0.00  0.00     0.209 HD
ENDBRANCH  29  30
ENDBRANCH  28  29
ENDBRANCH  27  28
ENDBRANCH  25  27
ENDBRANCH  22  25
ENDBRANCH  17  19
ENDBRANCH   1  17
TORSDOF 14
ENDMDL
MODEL 3
REMARK VINA RESULT:      -5.0      1.617      5.751
REMARK  14 active torsions:
REMARK  status: ('A' for Active; 'I' for Inactive)
REMARK    1  A    between atoms: C_3  and  C_7 
REMARK    2  A    between atoms: C_6  and  C_9 
REMARK    3  A    between atoms: C_7  and  O_12 
REMARK    4  A    between atoms: C_9  and  O_11 
REMARK    5  A    between atoms: O_11  and  C_13 
REMARK    6  A    between atoms: C_13  and  C_14 
REMARK    7  A    between atoms: C_14  and  O_15 
REMARK    8  A    between atoms: O_15  and  C_16 
REMARK    9  A    between atoms: C_16  and  C_17 
REMARK   10  A    between atoms: C_21  and  C_24 
REMARK   11  A    between atoms: C_24  and  O_25 
REMARK   12  A    between atoms: O_25  and  C_27 
REMARK   13  A    between atoms: C_27  and  C_28 
REMARK   14  A    between atoms: C_28  and  O_29 
ROOT
HETATM    1  O           1       7.172 -11.601   5.088  0.00  0.00    -0.315 OA
ENDROOT
BRANCH   1   2
HETATM    2  C           1       8.465 -11.254   5.503  0.00  0.00     0.206 C 
BRANCH   2   3
HETATM    3  C           1       8.380 -10.270   6.662  0.00  0.00     0.206 C 
BRANCH   3   4
HETATM    4  O           1       7.295 -10.608   7.484  0.00  0.00    -0.315 OA
BRANCH   4   5
HETATM    5  C           1       7.699 -11.442   8.450  0.00  0.00     0.293 C 
HETATM    6  O           1       8.857 -11.452   8.794  0.00  0.00    -0.259 OA
BRANCH   5   7
HETATM    7  C           1       6.811 -12.272   9.040  0.00  0.00     0.039 A 
HETATM    8  C           1       5.506 -11.986   9.008  0.00  0.00     0.018 A 
HETATM    9  C           1       4.627 -12.808   9.592  0.00  0.00     0.019 A 
HETATM   10  C           1       5.055 -13.916  10.208  0.00  0.00     0.037 A 
HETATM   11  C           1       6.361 -14.201  10.239  0.00  0.00     0.019 A 
HETATM   12  C           1       7.239 -13.379   9.655  0.00  0.00     0.018 A 
BRANCH  10  13
HETATM   13  C           1       4.167 -14.746  10.798  0.00  0.00     0.176 C 
HETATM   14  O           1       3.193 -14.294  11.350  0.00  0.00    -0.646 OA
BRANCH  13  15
HETATM   15  O           1       4.368 -16.069  10.770  0.00  0.00    -0.773 OA
HETATM   16  H           1       4.747 -16.301  11.634  0.00  0.00     0.167 HD
ENDBRANCH  13  15
ENDBRANCH  10  13
ENDBRANCH   5   7
ENDBRANCH   4   5
ENDBRANCH   3   4
ENDBRANCH   2   3
ENDBRANCH   1   2
BRANCH   1  17
HETATM   17  C           1       7.093 -12.923   4.900  0.00  0.00     0.293 C 
HETATM   18  O           1       7.883 -13.478   4.173  0.00  0.00    -0.259 OA
BRANCH  17  19
HETATM   19  C           1       6.132 -13.638   5.524  0.00  0.00     0.039 A 
HETATM   20  C           1       6.458 -14.731   6.221  0.00  0.00     0.018 A 
HETATM   21  C           1       5.505 -15.438   6.839  0.00  0.00     0.018 A 
HETATM   22  C           1       4.229 -15.053   6.760  0.00  0.00     0.039 A 
HETATM   23  C           1       3.902 -13.960   6.062  0.00  0.00     0.018 A 
HETATM   24  C           1       4.854 -13.252   5.444  0.00  0.00     0.018 A 
BRANCH  22  25
HETATM   25  C           1       3.266 -15.767   7.384  0.00  0.00     0.293 C 
HETATM   26  O           1       3.557 -16.773   7.987  0.00  0.00    -0.259 OA
BRANCH  25  27
HETATM   27  O           1       1.992 -15.362   7.333  0.00  0.00    -0.315 OA
BRANCH  27  28
HETATM   28  C           1       1.362 -15.616   8.559  0.00  0.00     0.205 C 
BRANCH  28  29
HETATM   29  C           1       0.484 -14.431   8.936  0.00  0.00     0.191 C 
BRANCH  29  30
HETATM   30  O           1       1.289 -13.308   9.171  0.00  0.00    -0.399 OA
HETATM   31  H           1       1.120 -12.698   8.474  0.00  0.00     0.209 HD
ENDBRANCH  29  30
ENDBRANCH  28  29
ENDBRANCH  27  28
ENDBRANCH  25  27
ENDBRANCH  22  25
ENDBRANCH  17  19
ENDBRANCH   1  17
TORSDOF 14
ENDMDL
MODEL 4
REMARK VINA RESULT:      -5.0      2.062      3.149
REMARK  14 active torsions:
REMARK  status: ('A' for Active; 'I' for Inactive)
REMARK    1  A    between atoms: C_3  and  C_7 
REMARK    2  A    between atoms: C_6  and  C_9 
REMARK    3  A    between atoms: C_7  and  O_12 
REMARK    4  A    between atoms: C_9  and  O_11 
REMARK    5  A    between atoms: O_11  and  C_13 
REMARK    6  A    between atoms: C_13  and  C_14 
REMARK    7  A    between atoms: C_14  and  O_15 
REMARK    8  A    between atoms: O_15  and  C_16 
REMARK    9  A    between atoms: C_16  and  C_17 
REMARK   10  A    between atoms: C_21  and  C_24 
REMARK   11  A    between atoms: C_24  and  O_25 
REMARK   12  A    between atoms: O_25  and  C_27 
REMARK   13  A    between atoms: C_27  and  C_28 
REMARK   14  A    between atoms: C_28  and  O_29 
ROOT
HETATM    1  O           1       1.254 -15.467   8.281  0.00  0.00    -0.315 OA
ENDROOT
BRANCH   1   2
HETATM    2  C           1       1.021 -16.800   8.647  0.00  0.00     0.206 C 
BRANCH   2   3
HETATM    3  C           1       2.111 -17.262   9.604  0.00  0.00     0.206 C 
BRANCH   3   4
HETATM    4  O           1       2.596 -16.163  10.328  0.00  0.00    -0.315 OA
BRANCH   4   5
HETATM    5  C           1       3.933 -16.187  10.352  0.00  0.00     0.293 C 
HETATM    6  O           1       4.516 -17.235  10.492  0.00  0.00    -0.259 OA
BRANCH   5   7
HETATM    7  C           1       4.632 -15.038  10.221  0.00  0.00     0.039 A 
HETATM    8  C           1       5.897 -15.071   9.790  0.00  0.00     0.018 A 
HETATM    9  C           1       6.588 -13.934   9.660  0.00  0.00     0.019 A 
HETATM   10  C           1       6.015 -12.764   9.962  0.00  0.00     0.037 A 
HETATM   11  C           1       4.750 -12.732  10.394  0.00  0.00     0.019 A 
HETATM   12  C           1       4.058 -13.869  10.523  0.00  0.00     0.018 A 
BRANCH  10  13
HETATM   13  C           1       6.714 -11.615   9.831  0.00  0.00     0.176 C 
HETATM   14  O           1       7.844 -11.544  10.251  0.00  0.00    -0.646 OA
BRANCH  13  15
HETATM   15  O           1       6.153 -10.556   9.236  0.00  0.00    -0.773 OA
HETATM   16  H           1       5.388 -10.897   8.745  0.00  0.00     0.167 HD
ENDBRANCH  13  15
ENDBRANCH  10  13
ENDBRANCH   5   7
ENDBRANCH   4   5
ENDBRANCH   3   4
ENDBRANCH   2   3
ENDBRANCH   1   2
BRANCH   1  17
HETATM   17  C           1       1.811 -15.419   7.065  0.00  0.00     0.293 C 
HETATM   18  O           1       1.366 -16.098   6.170  0.00  0.00    -0.259 OA
BRANCH  17  19
HETATM   19  C           1       2.869 -14.612   6.838  0.00  0.00     0.039 A 
HETATM   20  C           1       2.735 -13.287   6.944  0.00  0.00     0.018 A 
HETATM   21  C           1       3.783 -12.488   6.720  0.00  0.00     0.018 A 
HETATM   22  C           1       4.966 -13.014   6.388  0.00  0.00     0.039 A 
HETATM   23  C           1       5.101 -14.340   6.281  0.00  0.00     0.018 A 
HETATM   24  C           1       4.053 -15.139   6.506  0.00  0.00     0.018 A 
BRANCH  22  25
HETATM   25  C           1       6.026 -12.207   6.162  0.00  0.00     0.293 C 
HETATM   26  O           1       5.951 -11.028   6.414  0.00  0.00    -0.259 OA
BRANCH  25  27
HETATM   27  O           1       7.156 -12.713   5.656  0.00  0.00    -0.315 OA
BRANCH  27  28
HETATM   28  C           1       7.513 -12.016   4.494  0.00  0.00     0.205 C 
BRANCH  28  29
HETATM   29  C           1       7.759 -13.005   3.362  0.00  0.00     0.191 C 
BRANCH  29  30
HETATM   30  O           1       7.910 -14.294   3.891  0.00  0.00    -0.399 OA
HETATM   31  H           1       8.179 -14.192   4.788  0.00  0.00     0.209 HD
ENDBRANCH  29  30
ENDBRANCH  28  29
ENDBRANCH  27  28
ENDBRANCH  25  27
ENDBRANCH  22  25
ENDBRANCH  17  19
ENDBRANCH   1  17
TORSDOF 14
ENDMDL
MODEL 5
REMARK VINA RESULT:      -4.9      1.858      6.318
REMARK  14 active torsions:
REMARK  status: ('A' for Active; 'I' for Inactive)
REMARK    1  A    between atoms: C_3  and  C_7 
REMARK    2  A    between atoms: C_6  and  C_9 
REMARK    3  A    between atoms: C_7  and  O_12 
REMARK    4  A    between atoms: C_9  and  O_11 
REMARK    5  A    between atoms: O_11  and  C_13 
REMARK    6  A    between atoms: C_13  and  C_14 
REMARK    7  A    between atoms: C_14  and  O_15 
REMARK    8  A    between atoms: O_15  and  C_16 
REMARK    9  A    between atoms: C_16  and  C_17 
REMARK   10  A    between atoms: C_21  and  C_24 
REMARK   11  A    between atoms: C_24  and  O_25 
REMARK   12  A    between atoms: O_25  and  C_27 
REMARK   13  A    between atoms: C_27  and  C_28 
REMARK   14  A    between atoms: C_28  and  O_29 
ROOT
HETATM    1  O           1       7.376 -10.670   8.069  0.00  0.00    -0.315 OA
ENDROOT
BRANCH   1   2
HETATM    2  C           1       8.557 -10.472   7.341  0.00  0.00     0.206 C 
BRANCH   2   3
HETATM    3  C           1       8.646 -11.506   6.227  0.00  0.00     0.206 C 
BRANCH   3   4
HETATM    4  O           1       7.458 -11.495   5.481  0.00  0.00    -0.315 OA
BRANCH   4   5
HETATM    5  C           1       6.976 -12.739   5.374  0.00  0.00     0.293 C 
HETATM    6  O           1       7.664 -13.614   4.904  0.00  0.00    -0.259 OA
BRANCH   5   7
HETATM    7  C           1       5.721 -13.016   5.790  0.00  0.00     0.039 A 
HETATM    8  C           1       5.290 -14.281   5.817  0.00  0.00     0.018 A 
HETATM    9  C           1       4.048 -14.555   6.229  0.00  0.00     0.019 A 
HETATM   10  C           1       3.237 -13.564   6.615  0.00  0.00     0.037 A 
HETATM   11  C           1       3.669 -12.298   6.587  0.00  0.00     0.019 A 
HETATM   12  C           1       4.912 -12.024   6.175  0.00  0.00     0.018 A 
BRANCH  10  13
HETATM   13  C           1       1.982 -13.840   7.031  0.00  0.00     0.176 C 
HETATM   14  O           1       1.539 -13.297   8.014  0.00  0.00    -0.646 OA
BRANCH  13  15
HETATM   15  O           1       1.231 -14.716   6.354  0.00  0.00    -0.773 OA
HETATM   16  H           1       1.841 -15.204   5.776  0.00  0.00     0.167 HD
ENDBRANCH  13  15
ENDBRANCH  10  13
ENDBRANCH   5   7
ENDBRANCH   4   5
ENDBRANCH   3   4
ENDBRANCH   2   3
ENDBRANCH   1   2
BRANCH   1  17
HETATM   17  C           1       7.587 -11.562   9.044  0.00  0.00     0.293 C 
HETATM   18  O           1       8.626 -11.550   9.660  0.00  0.00    -0.259 OA
BRANCH  17  19
HETATM   19  C           1       6.637 -12.477   9.340  0.00  0.00     0.039 A 
HETATM   20  C           1       5.458 -12.082   9.829  0.00  0.00     0.018 A 
HETATM   21  C           1       4.518 -12.987  10.121  0.00  0.00     0.018 A 
HETATM   22  C           1       4.758 -14.287   9.926  0.00  0.00     0.039 A 
HETATM   23  C           1       5.938 -14.682   9.438  0.00  0.00     0.018 A 
HETATM   24  C           1       6.878 -13.778   9.145  0.00  0.00     0.018 A 
BRANCH  22  25
HETATM   25  C           1       3.809 -15.202  10.222  0.00  0.00     0.293 C 
HETATM   26  O           1       2.970 -14.953  11.054  0.00  0.00    -0.259 OA
BRANCH  25  27
HETATM   27  O           1       3.799 -16.383   9.593  0.00  0.00    -0.315 OA
BRANCH  27  28
HETATM   28  C           1       2.488 -16.718   9.227  0.00  0.00     0.205 C 
BRANCH  28  29
HETATM   29  C           1       2.515 -17.586   7.977  0.00  0.00     0.191 C 
BRANCH  29  30
HETATM   30  O           1       3.843 -17.819   7.596  0.00  0.00    -0.399 OA
HETATM   31  H           1       4.106 -17.090   7.059  0.00  0.00     0.209 HD
ENDBRANCH  29  30
ENDBRANCH  28  29
ENDBRANCH  27  28
ENDBRANCH  25  27
ENDBRANCH  22  25
ENDBRANCH  17  19
ENDBRANCH   1  17
TORSDOF 14
ENDMDL
MODEL 6
REMARK VINA RESULT:      -4.8      1.511      6.839
REMARK  14 active torsions:
REMARK  status: ('A' for Active; 'I' for Inactive)
REMARK    1  A    between atoms: C_3  and  C_7 
REMARK    2  A    between atoms: C_6  and  C_9 
REMARK    3  A    between atoms: C_7  and  O_12 
REMARK    4  A    between atoms: C_9  and  O_11 
REMARK    5  A    between atoms: O_11  and  C_13 
REMARK    6  A    between atoms: C_13  and  C_14 
REMARK    7  A    between atoms: C_14  and  O_15 
REMARK    8  A    between atoms: O_15  and  C_16 
REMARK    9  A    between atoms: C_16  and  C_17 
REMARK   10  A    between atoms: C_21  and  C_24 
REMARK   11  A    between atoms: C_24  and  O_25 
REMARK   12  A    between atoms: O_25  and  C_27 
REMARK   13  A    between atoms: C_27  and  C_28 
REMARK   14  A    between atoms: C_28  and  O_29 
ROOT
HETATM    1  O           1       7.253 -10.671   7.335  0.00  0.00    -0.315 OA
ENDROOT
BRANCH   1   2
HETATM    2  C           1       8.306 -10.334   6.473  0.00  0.00     0.206 C 
BRANCH   2   3
HETATM    3  C           1       8.100 -11.018   5.129  0.00  0.00     0.206 C 
BRANCH   3   4
HETATM    4  O           1       8.609 -12.323   5.185  0.00  0.00    -0.315 OA
BRANCH   4   5
HETATM    5  C           1       7.742 -13.175   4.626  0.00  0.00     0.293 C 
HETATM    6  O           1       7.808 -13.415   3.444  0.00  0.00    -0.259 OA
BRANCH   5   7
HETATM    7  C           1       6.792 -13.766   5.383  0.00  0.00     0.039 A 
HETATM    8  C           1       7.130 -14.726   6.250  0.00  0.00     0.018 A 
HETATM    9  C           1       6.190 -15.310   7.000  0.00  0.00     0.019 A 
HETATM   10  C           1       4.912 -14.936   6.883  0.00  0.00     0.037 A 
HETATM   11  C           1       4.574 -13.976   6.015  0.00  0.00     0.019 A 
HETATM   12  C           1       5.514 -13.391   5.265  0.00  0.00     0.018 A 
BRANCH  10  13
HETATM   13  C           1       3.962 -15.527   7.640  0.00  0.00     0.176 C 
HETATM   14  O           1       2.902 -14.976   7.818  0.00  0.00    -0.646 OA
BRANCH  13  15
HETATM   15  O           1       4.196 -16.723   8.194  0.00  0.00    -0.773 OA
HETATM   16  H           1       3.533 -17.326   7.820  0.00  0.00     0.167 HD
ENDBRANCH  13  15
ENDBRANCH  10  13
ENDBRANCH   5   7
ENDBRANCH   4   5
ENDBRANCH   3   4
ENDBRANCH   2   3
ENDBRANCH   1   2
BRANCH   1  17
HETATM   17  C           1       7.699 -11.479   8.305  0.00  0.00     0.293 C 
HETATM   18  O           1       8.885 -11.569   8.517  0.00  0.00    -0.259 OA
BRANCH  17  19
HETATM   19  C           1       6.824 -12.193   9.045  0.00  0.00     0.039 A 
HETATM   20  C           1       7.257 -13.215   9.790  0.00  0.00     0.018 A 
HETATM   21  C           1       6.390 -13.921  10.524  0.00  0.00     0.018 A 
HETATM   22  C           1       5.092 -13.607  10.512  0.00  0.00     0.039 A 
HETATM   23  C           1       4.659 -12.585   9.766  0.00  0.00     0.018 A 
HETATM   24  C           1       5.525 -11.878   9.033  0.00  0.00     0.018 A 
BRANCH  22  25
HETATM   25  C           1       4.216 -14.321  11.253  0.00  0.00     0.293 C 
HETATM   26  O           1       3.029 -14.174  11.092  0.00  0.00    -0.259 OA
BRANCH  25  27
HETATM   27  O           1       4.665 -15.189  12.167  0.00  0.00    -0.315 OA
BRANCH  27  28
HETATM   28  C           1       3.801 -16.289  12.245  0.00  0.00     0.205 C 
BRANCH  28  29
HETATM   29  C           1       4.575 -17.567  11.949  0.00  0.00     0.191 C 
BRANCH  29  30
HETATM   30  O           1       5.173 -17.470  10.685  0.00  0.00    -0.399 OA
HETATM   31  H           1       6.036 -17.117  10.817  0.00  0.00     0.209 HD
ENDBRANCH  29  30
ENDBRANCH  28  29
ENDBRANCH  27  28
ENDBRANCH  25  27
ENDBRANCH  22  25
ENDBRANCH  17  19
ENDBRANCH   1  17
TORSDOF 14
ENDMDL
MODEL 7
REMARK VINA RESULT:      -4.8      2.488      6.049
REMARK  14 active torsions:
REMARK  status: ('A' for Active; 'I' for Inactive)
REMARK    1  A    between atoms: C_3  and  C_7 
REMARK    2  A    between atoms: C_6  and  C_9 
REMARK    3  A    between atoms: C_7  and  O_12 
REMARK    4  A    between atoms: C_9  and  O_11 
REMARK    5  A    between atoms: O_11  and  C_13 
REMARK    6  A    between atoms: C_13  and  C_14 
REMARK    7  A    between atoms: C_14  and  O_15 
REMARK    8  A    between atoms: O_15  and  C_16 
REMARK    9  A    between atoms: C_16  and  C_17 
REMARK   10  A    between atoms: C_21  and  C_24 
REMARK   11  A    between atoms: C_24  and  O_25 
REMARK   12  A    between atoms: O_25  and  C_27 
REMARK   13  A    between atoms: C_27  and  C_28 
REMARK   14  A    between atoms: C_28  and  O_29 
ROOT
HETATM    1  O           1       7.205 -12.785  10.480  0.00  0.00    -0.315 OA
ENDROOT
BRANCH   1   2
HETATM    2  C           1       7.773 -11.557  10.116  0.00  0.00     0.206 C 
BRANCH   2   3
HETATM    3  C           1       8.434 -11.687   8.750  0.00  0.00     0.206 C 
BRANCH   3   4
HETATM    4  O           1       8.106 -12.931   8.189  0.00  0.00    -0.315 OA
BRANCH   4   5
HETATM    5  C           1       7.508 -12.753   7.006  0.00  0.00     0.293 C 
HETATM    6  O           1       8.101 -12.207   6.105  0.00  0.00    -0.259 OA
BRANCH   5   7
HETATM    7  C           1       6.242 -13.183   6.817  0.00  0.00     0.039 A 
HETATM    8  C           1       5.228 -12.312   6.852  0.00  0.00     0.018 A 
HETATM    9  C           1       3.974 -12.738   6.666  0.00  0.00     0.019 A 
HETATM   10  C           1       3.735 -14.035   6.445  0.00  0.00     0.037 A 
HETATM   11  C           1       4.749 -14.906   6.410  0.00  0.00     0.019 A 
HETATM   12  C           1       6.003 -14.480   6.596  0.00  0.00     0.018 A 
BRANCH  10  13
HETATM   13  C           1       2.468 -14.466   6.257  0.00  0.00     0.176 C 
HETATM   14  O           1       1.557 -13.673   6.241  0.00  0.00    -0.646 OA
BRANCH  13  15
HETATM   15  O           1       2.223 -15.770   6.088  0.00  0.00    -0.773 OA
HETATM   16  H           1       2.704 -16.228   6.798  0.00  0.00     0.167 HD
ENDBRANCH  13  15
ENDBRANCH  10  13
ENDBRANCH   5   7
ENDBRANCH   4   5
ENDBRANCH   3   4
ENDBRANCH   2   3
ENDBRANCH   1   2
BRANCH   1  17
HETATM   17  C           1       5.877 -12.657  10.593  0.00  0.00     0.293 C 
HETATM   18  O           1       5.399 -11.599  10.928  0.00  0.00    -0.259 OA
BRANCH  17  19
HETATM   19  C           1       5.072 -13.709  10.332  0.00  0.00     0.039 A 
HETATM   20  C           1       3.752 -13.530  10.222  0.00  0.00     0.018 A 
HETATM   21  C           1       2.955 -14.573   9.963  0.00  0.00     0.018 A 
HETATM   22  C           1       3.478 -15.793   9.815  0.00  0.00     0.039 A 
HETATM   23  C           1       4.798 -15.973   9.925  0.00  0.00     0.018 A 
HETATM   24  C           1       5.595 -14.931  10.183  0.00  0.00     0.018 A 
BRANCH  22  25
HETATM   25  C           1       2.673 -16.846   9.553  0.00  0.00     0.293 C 
HETATM   26  O           1       1.950 -17.282  10.416  0.00  0.00    -0.259 OA
BRANCH  25  27
HETATM   27  O           1       2.677 -17.406   8.337  0.00  0.00    -0.315 OA
BRANCH  27  28
HETATM   28  C           1       2.893 -18.787   8.449  0.00  0.00     0.205 C 
BRANCH  28  29
HETATM   29  C           1       2.813 -19.428   7.070  0.00  0.00     0.191 C 
BRANCH  29  30
HETATM   30  O           1       3.253 -18.514   6.103  0.00  0.00    -0.399 OA
HETATM   31  H           1       2.537 -17.926   5.935  0.00  0.00     0.209 HD
ENDBRANCH  29  30
ENDBRANCH  28  29
ENDBRANCH  27  28
ENDBRANCH  25  27
ENDBRANCH  22  25
ENDBRANCH  17  19
ENDBRANCH   1  17
TORSDOF 14
ENDMDL
MODEL 8
REMARK VINA RESULT:      -4.8      1.771      6.924
REMARK  14 active torsions:
REMARK  status: ('A' for Active; 'I' for Inactive)
REMARK    1  A    between atoms: C_3  and  C_7 
REMARK    2  A    between atoms: C_6  and  C_9 
REMARK    3  A    between atoms: C_7  and  O_12 
REMARK    4  A    between atoms: C_9  and  O_11 
REMARK    5  A    between atoms: O_11  and  C_13 
REMARK    6  A    between atoms: C_13  and  C_14 
REMARK    7  A    between atoms: C_14  and  O_15 
REMARK    8  A    between atoms: O_15  and  C_16 
REMARK    9  A    between atoms: C_16  and  C_17 
REMARK   10  A    between atoms: C_21  and  C_24 
REMARK   11  A    between atoms: C_24  and  O_25 
REMARK   12  A    between atoms: O_25  and  C_27 
REMARK   13  A    between atoms: C_27  and  C_28 
REMARK   14  A    between atoms: C_28  and  O_29 
ROOT
HETATM    1  O           1       7.368 -10.905   7.763  0.00  0.00    -0.315 OA
ENDROOT
BRANCH   1   2
HETATM    2  C           1       8.503 -10.546   7.024  0.00  0.00     0.206 C 
BRANCH   2   3
HETATM    3  C           1       8.306 -10.940   5.567  0.00  0.00     0.206 C 
BRANCH   3   4
HETATM    4  O           1       8.457 -12.328   5.432  0.00  0.00    -0.315 OA
BRANCH   4   5
HETATM    5  C           1       7.406 -12.839   4.779  0.00  0.00     0.293 C 
HETATM    6  O           1       7.263 -12.619   3.600  0.00  0.00    -0.259 OA
BRANCH   5   7
HETATM    7  C           1       6.506 -13.600   5.439  0.00  0.00     0.039 A 
HETATM    8  C           1       5.209 -13.277   5.410  0.00  0.00     0.018 A 
HETATM    9  C           1       4.318 -14.031   6.062  0.00  0.00     0.019 A 
HETATM   10  C           1       4.725 -15.108   6.744  0.00  0.00     0.037 A 
HETATM   11  C           1       6.022 -15.430   6.772  0.00  0.00     0.019 A 
HETATM   12  C           1       6.913 -14.676   6.120  0.00  0.00     0.018 A 
BRANCH  10  13
HETATM   13  C           1       3.824 -15.869   7.403  0.00  0.00     0.176 C 
HETATM   14  O           1       2.661 -15.546   7.426  0.00  0.00    -0.646 OA
BRANCH  13  15
HETATM   15  O           1       4.222 -16.982   8.032  0.00  0.00    -0.773 OA
HETATM   16  H           1       4.669 -17.525   7.360  0.00  0.00     0.167 HD
ENDBRANCH  13  15
ENDBRANCH  10  13
ENDBRANCH   5   7
ENDBRANCH   4   5
ENDBRANCH   3   4
ENDBRANCH   2   3
ENDBRANCH   1   2
BRANCH   1  17
HETATM   17  C           1       7.699 -11.804   8.698  0.00  0.00     0.293 C 
HETATM   18  O           1       8.850 -11.916   9.047  0.00  0.00    -0.259 OA
BRANCH  17  19
HETATM   19  C           1       6.746 -12.585   9.252  0.00  0.00     0.039 A 
HETATM   20  C           1       7.087 -13.727   9.857  0.00  0.00     0.018 A 
HETATM   21  C           1       6.144 -14.500  10.406  0.00  0.00     0.018 A 
HETATM   22  C           1       4.861 -14.132  10.349  0.00  0.00     0.039 A 
HETATM   23  C           1       4.520 -12.990   9.744  0.00  0.00     0.018 A 
HETATM   24  C           1       5.462 -12.216   9.195  0.00  0.00     0.018 A 
BRANCH  22  25
HETATM   25  C           1       3.908 -14.913  10.904  0.00  0.00     0.293 C 
HETATM   26  O           1       4.098 -16.099  11.030  0.00  0.00    -0.259 OA
BRANCH  25  27
HETATM   27  O           1       2.753 -14.372  11.311  0.00  0.00    -0.315 OA
BRANCH  27  28
HETATM   28  C           1       1.693 -15.246  11.034  0.00  0.00     0.205 C 
BRANCH  28  29
HETATM   29  C           1       0.510 -14.913  11.933  0.00  0.00     0.191 C 
BRANCH  29  30
HETATM   30  O           1      -0.154 -13.784  11.434  0.00  0.00    -0.399 OA
HETATM   31  H           1       0.145 -13.046  11.937  0.00  0.00     0.209 HD
ENDBRANCH  29  30
ENDBRANCH  28  29
ENDBRANCH  27  28
ENDBRANCH  25  27
ENDBRANCH  22  25
ENDBRANCH  17  19
ENDBRANCH   1  17
TORSDOF 14
ENDMDL
MODEL 9
REMARK VINA RESULT:      -4.7      2.192      6.495
REMARK  14 active torsions:
REMARK  status: ('A' for Active; 'I' for Inactive)
REMARK    1  A    between atoms: C_3  and  C_7 
REMARK    2  A    between atoms: C_6  and  C_9 
REMARK    3  A    between atoms: C_7  and  O_12 
REMARK    4  A    between atoms: C_9  and  O_11 
REMARK    5  A    between atoms: O_11  and  C_13 
REMARK    6  A    between atoms: C_13  and  C_14 
REMARK    7  A    between atoms: C_14  and  O_15 
REMARK    8  A    between atoms: O_15  and  C_16 
REMARK    9  A    between atoms: C_16  and  C_17 
REMARK   10  A    between atoms: C_21  and  C_24 
REMARK   11  A    between atoms: C_24  and  O_25 
REMARK   12  A    between atoms: O_25  and  C_27 
REMARK   13  A    between atoms: C_27  and  C_28 
REMARK   14  A    between atoms: C_28  and  O_29 
ROOT
HETATM    1  O           1       8.046 -13.056   9.348  0.00  0.00    -0.315 OA
ENDROOT
BRANCH   1   2
HETATM    2  C           1       8.584 -11.828   8.940  0.00  0.00     0.206 C 
BRANCH   2   3
HETATM    3  C           1       7.793 -11.297   7.752  0.00  0.00     0.206 C 
BRANCH   3   4
HETATM    4  O           1       7.691 -12.296   6.773  0.00  0.00    -0.315 OA
BRANCH   4   5
HETATM    5  C           1       6.464 -12.286   6.238  0.00  0.00     0.293 C 
HETATM    6  O           1       6.073 -11.310   5.643  0.00  0.00    -0.259 OA
BRANCH   5   7
HETATM    7  C           1       5.663 -13.367   6.363  0.00  0.00     0.039 A 
HETATM    8  C           1       4.342 -13.240   6.208  0.00  0.00     0.018 A 
HETATM    9  C           1       3.549 -14.310   6.332  0.00  0.00     0.019 A 
HETATM   10  C           1       4.078 -15.506   6.609  0.00  0.00     0.037 A 
HETATM   11  C           1       5.401 -15.632   6.764  0.00  0.00     0.019 A 
HETATM   12  C           1       6.193 -14.562   6.640  0.00  0.00     0.018 A 
BRANCH  10  13
HETATM   13  C           1       3.278 -16.587   6.734  0.00  0.00     0.176 C 
HETATM   14  O           1       2.186 -16.593   6.217  0.00  0.00    -0.646 OA
BRANCH  13  15
HETATM   15  O           1       3.694 -17.651   7.430  0.00  0.00    -0.773 OA
HETATM   16  H           1       3.529 -17.443   8.365  0.00  0.00     0.167 HD
ENDBRANCH  13  15
ENDBRANCH  10  13
ENDBRANCH   5   7
ENDBRANCH   4   5
ENDBRANCH   3   4
ENDBRANCH   2   3
ENDBRANCH   1   2
BRANCH   1  17
HETATM   17  C           1       7.109 -12.855  10.283  0.00  0.00     0.293 C 
HETATM   18  O           1       7.319 -12.088  11.192  0.00  0.00    -0.259 OA
BRANCH  17  19
HETATM   19  C           1       5.930 -13.509  10.210  0.00  0.00     0.039 A 
HETATM   20  C           1       4.804 -12.832   9.967  0.00  0.00     0.018 A 
HETATM   21  C           1       3.636 -13.480   9.894  0.00  0.00     0.018 A 
HETATM   22  C           1       3.595 -14.805  10.065  0.00  0.00     0.039 A 
HETATM   23  C           1       4.722 -15.483  10.308  0.00  0.00     0.018 A 
HETATM   24  C           1       5.889 -14.835  10.380  0.00  0.00     0.018 A 
BRANCH  22  25
HETATM   25  C           1       2.415 -15.460   9.991  0.00  0.00     0.293 C 
HETATM   26  O           1       2.380 -16.657  10.141  0.00  0.00    -0.259 OA
BRANCH  25  27
HETATM   27  O           1       1.287 -14.781   9.751  0.00  0.00    -0.315 OA
BRANCH  27  28
HETATM   28  C           1       0.256 -15.672   9.422  0.00  0.00     0.205 C 
BRANCH  28  29
HETATM   29  C           1      -0.626 -15.053   8.346  0.00  0.00     0.191 C 
BRANCH  29  30
HETATM   30  O           1       0.118 -14.881   7.171  0.00  0.00    -0.399 OA
HETATM   31  H           1       0.166 -13.954   7.010  0.00  0.00     0.209 HD
ENDBRANCH  29  30
ENDBRANCH  28  29
ENDBRANCH  27  28
ENDBRANCH  25  27
ENDBRANCH  22  25
ENDBRANCH  17  19
ENDBRANCH   1  17
TORSDOF 14
ENDMDL
MODEL 10
REMARK VINA RESULT:      -4.5      2.405      5.584
REMARK  14 active torsions:
REMARK  status: ('A' for Active; 'I' for Inactive)
REMARK    1  A    between atoms: C_3  and  C_7 
REMARK    2  A    between atoms: C_6  and  C_9 
REMARK    3  A    between atoms: C_7  and  O_12 
REMARK    4  A    between atoms: C_9  and  O_11 
REMARK    5  A    between atoms: O_11  and  C_13 
REMARK    6  A    between atoms: C_13  and  C_14 
REMARK    7  A    between atoms: C_14  and  O_15 
REMARK    8  A    between atoms: O_15  and  C_16 
REMARK    9  A    between atoms: C_16  and  C_17 
REMARK   10  A    between atoms: C_21  and  C_24 
REMARK   11  A    between atoms: C_24  and  O_25 
REMARK   12  A    between atoms: O_25  and  C_27 
REMARK   13  A    between atoms: C_27  and  C_28 
REMARK   14  A    between atoms: C_28  and  O_29 
ROOT
HETATM    1  O           1       7.489 -13.916  12.286  0.00  0.00    -0.315 OA
ENDROOT
BRANCH   1   2
HETATM    2  C           1       8.869 -14.117  12.138  0.00  0.00     0.206 C 
BRANCH   2   3
HETATM    3  C           1       9.377 -13.299  10.959  0.00  0.00     0.206 C 
BRANCH   3   4
HETATM    4  O           1       8.714 -13.701   9.790  0.00  0.00    -0.315 OA
BRANCH   4   5
HETATM    5  C           1       8.249 -12.629   9.139  0.00  0.00     0.293 C 
HETATM    6  O           1       8.781 -11.554   9.287  0.00  0.00    -0.259 OA
BRANCH   5   7
HETATM    7  C           1       7.184 -12.748   8.315  0.00  0.00     0.039 A 
HETATM    8  C           1       6.257 -11.785   8.279  0.00  0.00     0.018 A 
HETATM    9  C           1       5.203 -11.903   7.464  0.00  0.00     0.019 A 
HETATM   10  C           1       5.077 -12.984   6.686  0.00  0.00     0.037 A 
HETATM   11  C           1       6.005 -13.946   6.723  0.00  0.00     0.019 A 
HETATM   12  C           1       7.059 -13.828   7.538  0.00  0.00     0.018 A 
BRANCH  10  13
HETATM   13  C           1       4.012 -13.103   5.863  0.00  0.00     0.176 C 
HETATM   14  O           1       2.906 -12.832   6.264  0.00  0.00    -0.646 OA
BRANCH  13  15
HETATM   15  O           1       4.184 -13.521   4.604  0.00  0.00    -0.773 OA
HETATM   16  H           1       4.510 -14.434   4.666  0.00  0.00     0.167 HD
ENDBRANCH  13  15
ENDBRANCH  10  13
ENDBRANCH   5   7
ENDBRANCH   4   5
ENDBRANCH   3   4
ENDBRANCH   2   3
ENDBRANCH   1   2
BRANCH   1  17
HETATM   17  C           1       6.827 -15.026  11.936  0.00  0.00     0.293 C 
HETATM   18  O           1       7.223 -16.106  12.304  0.00  0.00    -0.259 OA
BRANCH  17  19
HETATM   19  C           1       5.718 -14.937  11.171  0.00  0.00     0.039 A 
HETATM   20  C           1       5.357 -15.964  10.395  0.00  0.00     0.018 A 
HETATM   21  C           1       4.259 -15.877   9.638  0.00  0.00     0.018 A 
HETATM   22  C           1       3.521 -14.763   9.656  0.00  0.00     0.039 A 
HETATM   23  C           1       3.882 -13.735  10.432  0.00  0.00     0.018 A 
HETATM   24  C           1       4.980 -13.822  11.189  0.00  0.00     0.018 A 
BRANCH  22  25
HETATM   25  C           1       2.410 -14.674   8.891  0.00  0.00     0.293 C 
HETATM   26  O           1       2.161 -15.540   8.087  0.00  0.00    -0.259 OA
BRANCH  25  27
HETATM   27  O           1       1.588 -13.627   9.024  0.00  0.00    -0.315 OA
BRANCH  27  28
HETATM   28  C           1       0.304 -13.969   8.578  0.00  0.00     0.205 C 
BRANCH  28  29
HETATM   29  C           1      -0.490 -12.702   8.292  0.00  0.00     0.191 C 
BRANCH  29  30
HETATM   30  O           1      -0.651 -11.972   9.477  0.00  0.00    -0.399 OA
HETATM   31  H           1      -1.076 -12.542  10.095  0.00  0.00     0.209 HD
ENDBRANCH  29  30
ENDBRANCH  28  29
ENDBRANCH  27  28
ENDBRANCH  25  27
ENDBRANCH  22  25
ENDBRANCH  17  19
ENDBRANCH   1  17
TORSDOF 14
ENDMDL
MODEL 11
REMARK VINA RESULT:      -4.5      2.691      6.114
REMARK  14 active torsions:
REMARK  status: ('A' for Active; 'I' for Inactive)
REMARK    1  A    between atoms: C_3  and  C_7 
REMARK    2  A    between atoms: C_6  and  C_9 
REMARK    3  A    between atoms: C_7  and  O_12 
REMARK    4  A    between atoms: C_9  and  O_11 
REMARK    5  A    between atoms: O_11  and  C_13 
REMARK    6  A    between atoms: C_13  and  C_14 
REMARK    7  A    between atoms: C_14  and  O_15 
REMARK    8  A    between atoms: O_15  and  C_16 
REMARK    9  A    between atoms: C_16  and  C_17 
REMARK   10  A    between atoms: C_21  and  C_24 
REMARK   11  A    between atoms: C_24  and  O_25 
REMARK   12  A    between atoms: O_25  and  C_27 
REMARK   13  A    between atoms: C_27  and  C_28 
REMARK   14  A    between atoms: C_28  and  O_29 
ROOT
HETATM    1  O           1       5.751 -13.395  11.172  0.00  0.00    -0.315 OA
ENDROOT
BRANCH   1   2
HETATM    2  C           1       7.130 -13.165  11.282  0.00  0.00     0.206 C 
BRANCH   2   3
HETATM    3  C           1       7.539 -12.061  10.317  0.00  0.00     0.206 C 
BRANCH   3   4
HETATM    4  O           1       7.850 -12.621   9.069  0.00  0.00    -0.315 OA
BRANCH   4   5
HETATM    5  C           1       7.109 -12.047   8.114  0.00  0.00     0.293 C 
HETATM    6  O           1       7.410 -10.957   7.690  0.00  0.00    -0.259 OA
BRANCH   5   7
HETATM    7  C           1       6.024 -12.687   7.625  0.00  0.00     0.039 A 
HETATM    8  C           1       4.832 -12.083   7.635  0.00  0.00     0.018 A 
HETATM    9  C           1       3.758 -12.716   7.151  0.00  0.00     0.019 A 
HETATM   10  C           1       3.877 -13.953   6.657  0.00  0.00     0.037 A 
HETATM   11  C           1       5.070 -14.557   6.648  0.00  0.00     0.019 A 
HETATM   12  C           1       6.144 -13.923   7.132  0.00  0.00     0.018 A 
BRANCH  10  13
HETATM   13  C           1       2.792 -14.593   6.168  0.00  0.00     0.176 C 
HETATM   14  O           1       2.864 -15.760   5.866  0.00  0.00    -0.646 OA
BRANCH  13  15
HETATM   15  O           1       1.638 -13.933   6.019  0.00  0.00    -0.773 OA
HETATM   16  H           1       1.694 -13.157   6.600  0.00  0.00     0.167 HD
ENDBRANCH  13  15
ENDBRANCH  10  13
ENDBRANCH   5   7
ENDBRANCH   4   5
ENDBRANCH   3   4
ENDBRANCH   2   3
ENDBRANCH   1   2
BRANCH   1  17
HETATM   17  C           1       5.532 -14.632  10.712  0.00  0.00     0.293 C 
HETATM   18  O           1       6.439 -15.428  10.662  0.00  0.00    -0.259 OA
BRANCH  17  19
HETATM   19  C           1       4.295 -14.992  10.303  0.00  0.00     0.039 A 
HETATM   20  C           1       3.277 -14.134  10.420  0.00  0.00     0.018 A 
HETATM   21  C           1       2.053 -14.490  10.014  0.00  0.00     0.018 A 
HETATM   22  C           1       1.848 -15.703   9.493  0.00  0.00     0.039 A 
HETATM   23  C           1       2.867 -16.561   9.377  0.00  0.00     0.018 A 
HETATM   24  C           1       4.090 -16.206   9.781  0.00  0.00     0.018 A 
BRANCH  22  25
HETATM   25  C           1       0.612 -16.063   9.083  0.00  0.00     0.293 C 
HETATM   26  O           1      -0.113 -16.681   9.825  0.00  0.00    -0.259 OA
BRANCH  25  27
HETATM   27  O           1       0.192 -15.736   7.855  0.00  0.00    -0.315 OA
BRANCH  27  28
HETATM   28  C           1      -0.723 -16.692   7.394  0.00  0.00     0.205 C 
BRANCH  28  29
HETATM   29  C           1      -0.007 -17.688   6.491  0.00  0.00     0.191 C 
BRANCH  29  30
HETATM   30  O           1       0.216 -17.106   5.236  0.00  0.00    -0.399 OA
HETATM   31  H           1       1.036 -16.644   5.289  0.00  0.00     0.209 HD
ENDBRANCH  29  30
ENDBRANCH  28  29
ENDBRANCH  27  28
ENDBRANCH  25  27
ENDBRANCH  22  25
ENDBRANCH  17  19
ENDBRANCH   1  17
TORSDOF 14
ENDMDL
MODEL 12
REMARK VINA RESULT:      -4.5     14.046     17.567
REMARK  14 active torsions:
REMARK  status: ('A' for Active; 'I' for Inactive)
REMARK    1  A    between atoms: C_3  and  C_7 
REMARK    2  A    between atoms: C_6  and  C_9 
REMARK    3  A    between atoms: C_7  and  O_12 
REMARK    4  A    between atoms: C_9  and  O_11 
REMARK    5  A    between atoms: O_11  and  C_13 
REMARK    6  A    between atoms: C_13  and  C_14 
REMARK    7  A    between atoms: C_14  and  O_15 
REMARK    8  A    between atoms: O_15  and  C_16 
REMARK    9  A    between atoms: C_16  and  C_17 
REMARK   10  A    between atoms: C_21  and  C_24 
REMARK   11  A    between atoms: C_24  and  O_25 
REMARK   12  A    between atoms: O_25  and  C_27 
REMARK   13  A    between atoms: C_27  and  C_28 
REMARK   14  A    between atoms: C_28  and  O_29 
ROOT
HETATM    1  O           1       2.548 -22.175  -9.270  0.00  0.00    -0.315 OA
ENDROOT
BRANCH   1   2
HETATM    2  C           1       2.490 -20.782  -9.134  0.00  0.00     0.206 C 
BRANCH   2   3
HETATM    3  C           1       1.101 -20.375  -8.660  0.00  0.00     0.206 C 
BRANCH   3   4
HETATM    4  O           1       1.167 -19.956  -7.323  0.00  0.00    -0.315 OA
BRANCH   4   5
HETATM    5  C           1       0.907 -20.987  -6.510  0.00  0.00     0.293 C 
HETATM    6  O           1      -0.043 -21.701  -6.725  0.00  0.00    -0.259 OA
BRANCH   5   7
HETATM    7  C           1       1.708 -21.229  -5.449  0.00  0.00     0.039 A 
HETATM    8  C           1       1.303 -22.059  -4.482  0.00  0.00     0.018 A 
HETATM    9  C           1       2.096 -22.298  -3.432  0.00  0.00     0.019 A 
HETATM   10  C           1       3.293 -21.707  -3.349  0.00  0.00     0.037 A 
HETATM   11  C           1       3.696 -20.877  -4.316  0.00  0.00     0.019 A 
HETATM   12  C           1       2.904 -20.637  -5.366  0.00  0.00     0.018 A 
BRANCH  10  13
HETATM   13  C           1       4.093 -21.948  -2.288  0.00  0.00     0.176 C 
HETATM   14  O           1       3.928 -22.941  -1.620  0.00  0.00    -0.646 OA
BRANCH  13  15
HETATM   15  O           1       5.070 -21.088  -1.976  0.00  0.00    -0.773 OA
HETATM   16  H           1       5.378 -20.715  -2.819  0.00  0.00     0.167 HD
ENDBRANCH  13  15
ENDBRANCH  10  13
ENDBRANCH   5   7
ENDBRANCH   4   5
ENDBRANCH   3   4
ENDBRANCH   2   3
ENDBRANCH   1   2
BRANCH   1  17
HETATM   17  C           1       3.770 -22.614  -8.948  0.00  0.00     0.293 C 
HETATM   18  O           1       4.699 -22.417  -9.694  0.00  0.00    -0.259 OA
BRANCH  17  19
HETATM   19  C           1       3.966 -23.278  -7.788  0.00  0.00     0.039 A 
HETATM   20  C           1       5.117 -23.140  -7.124  0.00  0.00     0.018 A 
HETATM   21  C           1       5.310 -23.797  -5.975  0.00  0.00     0.018 A 
HETATM   22  C           1       4.352 -24.592  -5.491  0.00  0.00     0.039 A 
HETATM   23  C           1       3.200 -24.732  -6.155  0.00  0.00     0.018 A 
HETATM   24  C           1       3.007 -24.075  -7.303  0.00  0.00     0.018 A 
BRANCH  22  25
HETATM   25  C           1       4.547 -25.256  -4.330  0.00  0.00     0.293 C 
HETATM   26  O           1       5.659 -25.603  -4.013  0.00  0.00    -0.259 OA
BRANCH  25  27
HETATM   27  O           1       3.507 -25.530  -3.533  0.00  0.00    -0.315 OA
BRANCH  27  28
HETATM   28  C           1       3.800 -26.642  -2.732  0.00  0.00     0.205 C 
BRANCH  28  29
HETATM   29  C           1       3.355 -26.371  -1.302  0.00  0.00     0.191 C 
BRANCH  29  30
HETATM   30  O           1       4.307 -25.567  -0.660  0.00  0.00    -0.399 OA
HETATM   31  H           1       4.074 -25.541   0.253  0.00  0.00     0.209 HD
ENDBRANCH  29  30
ENDBRANCH  28  29
ENDBRANCH  27  28
ENDBRANCH  25  27
ENDBRANCH  22  25
ENDBRANCH  17  19
ENDBRANCH   1  17
TORSDOF 14
ENDMDL
MODEL 13
REMARK VINA RESULT:      -4.5      2.479      5.428
REMARK  14 active torsions:
REMARK  status: ('A' for Active; 'I' for Inactive)
REMARK    1  A    between atoms: C_3  and  C_7 
REMARK    2  A    between atoms: C_6  and  C_9 
REMARK    3  A    between atoms: C_7  and  O_12 
REMARK    4  A    between atoms: C_9  and  O_11 
REMARK    5  A    between atoms: O_11  and  C_13 
REMARK    6  A    between atoms: C_13  and  C_14 
REMARK    7  A    between atoms: C_14  and  O_15 
REMARK    8  A    between atoms: O_15  and  C_16 
REMARK    9  A    between atoms: C_16  and  C_17 
REMARK   10  A    between atoms: C_21  and  C_24 
REMARK   11  A    between atoms: C_24  and  O_25 
REMARK   12  A    between atoms: O_25  and  C_27 
REMARK   13  A    between atoms: C_27  and  C_28 
REMARK   14  A    between atoms: C_28  and  O_29 
ROOT
HETATM    1  O           1       8.389 -13.528  12.091  0.00  0.00    -0.315 OA
ENDROOT
BRANCH   1   2
HETATM    2  C           1       9.665 -13.932  11.676  0.00  0.00     0.206 C 
BRANCH   2   3
HETATM    3  C           1       9.987 -13.299  10.329  0.00  0.00     0.206 C 
BRANCH   3   4
HETATM    4  O           1       9.026 -13.692   9.386  0.00  0.00    -0.315 OA
BRANCH   4   5
HETATM    5  C           1       8.330 -12.626   8.974  0.00  0.00     0.293 C 
HETATM    6  O           1       8.694 -11.514   9.272  0.00  0.00    -0.259 OA
BRANCH   5   7
HETATM    7  C           1       7.219 -12.794   8.223  0.00  0.00     0.039 A 
HETATM    8  C           1       7.058 -13.913   7.510  0.00  0.00     0.018 A 
HETATM    9  C           1       5.959 -14.079   6.767  0.00  0.00     0.019 A 
HETATM   10  C           1       5.020 -13.127   6.738  0.00  0.00     0.037 A 
HETATM   11  C           1       5.182 -12.008   7.452  0.00  0.00     0.019 A 
HETATM   12  C           1       6.282 -11.841   8.195  0.00  0.00     0.018 A 
BRANCH  10  13
HETATM   13  C           1       3.910 -13.295   5.987  0.00  0.00     0.176 C 
HETATM   14  O           1       3.993 -13.781   4.885  0.00  0.00    -0.646 OA
BRANCH  13  15
HETATM   15  O           1       2.716 -12.923   6.466  0.00  0.00    -0.773 OA
HETATM   16  H           1       2.771 -13.023   7.431  0.00  0.00     0.167 HD
ENDBRANCH  13  15
ENDBRANCH  10  13
ENDBRANCH   5   7
ENDBRANCH   4   5
ENDBRANCH   3   4
ENDBRANCH   2   3
ENDBRANCH   1   2
BRANCH   1  17
HETATM   17  C           1       7.597 -14.597  12.237  0.00  0.00     0.293 C 
HETATM   18  O           1       7.893 -15.464  13.024  0.00  0.00    -0.259 OA
BRANCH  17  19
HETATM   19  C           1       6.468 -14.707  11.504  0.00  0.00     0.039 A 
HETATM   20  C           1       6.244 -15.809  10.783  0.00  0.00     0.018 A 
HETATM   21  C           1       5.125 -15.918  10.058  0.00  0.00     0.018 A 
HETATM   22  C           1       4.231 -14.925  10.055  0.00  0.00     0.039 A 
HETATM   23  C           1       4.455 -13.822  10.776  0.00  0.00     0.018 A 
HETATM   24  C           1       5.573 -13.713  11.501  0.00  0.00     0.018 A 
BRANCH  22  25
HETATM   25  C           1       3.101 -15.035   9.323  0.00  0.00     0.293 C 
HETATM   26  O           1       2.423 -14.058   9.109  0.00  0.00    -0.259 OA
BRANCH  25  27
HETATM   27  O           1       2.732 -16.225   8.836  0.00  0.00    -0.315 OA
BRANCH  27  28
HETATM   28  C           1       2.124 -16.062   7.584  0.00  0.00     0.205 C 
BRANCH  28  29
HETATM   29  C           1       2.883 -16.870   6.540  0.00  0.00     0.191 C 
BRANCH  29  30
HETATM   30  O           1       4.152 -17.199   7.035  0.00  0.00    -0.399 OA
HETATM   31  H           1       4.749 -16.543   6.716  0.00  0.00     0.209 HD
ENDBRANCH  29  30
ENDBRANCH  28  29
ENDBRANCH  27  28
ENDBRANCH  25  27
ENDBRANCH  22  25
ENDBRANCH  17  19
ENDBRANCH   1  17
TORSDOF 14
ENDMDL
MODEL 14
REMARK VINA RESULT:      -4.4      4.036      6.522
REMARK  14 active torsions:
REMARK  status: ('A' for Active; 'I' for Inactive)
REMARK    1  A    between atoms: C_3  and  C_7 
REMARK    2  A    between atoms: C_6  and  C_9 
REMARK    3  A    between atoms: C_7  and  O_12 
REMARK    4  A    between atoms: C_9  and  O_11 
REMARK    5  A    between atoms: O_11  and  C_13 
REMARK    6  A    between atoms: C_13  and  C_14 
REMARK    7  A    between atoms: C_14  and  O_15 
REMARK    8  A    between atoms: O_15  and  C_16 
REMARK    9  A    between atoms: C_16  and  C_17 
REMARK   10  A    between atoms: C_21  and  C_24 
REMARK   11  A    between atoms: C_24  and  O_25 
REMARK   12  A    between atoms: O_25  and  C_27 
REMARK   13  A    between atoms: C_27  and  C_28 
REMARK   14  A    between atoms: C_28  and  O_29 
ROOT
HETATM    1  O           1       1.723 -19.503   6.978  0.00  0.00    -0.315 OA
ENDROOT
BRANCH   1   2
HETATM    2  C           1       0.626 -19.982   7.708  0.00  0.00     0.206 C 
BRANCH   2   3
HETATM    3  C           1       0.951 -19.945   9.195  0.00  0.00     0.206 C 
BRANCH   3   4
HETATM    4  O           1       0.172 -18.961   9.820  0.00  0.00    -0.315 OA
BRANCH   4   5
HETATM    5  C           1       0.920 -17.880  10.072  0.00  0.00     0.293 C 
HETATM    6  O           1       1.975 -17.997  10.650  0.00  0.00    -0.259 OA
BRANCH   5   7
HETATM    7  C           1       0.496 -16.659   9.681  0.00  0.00     0.039 A 
HETATM    8  C           1       1.214 -15.573   9.987  0.00  0.00     0.018 A 
HETATM    9  C           1       0.794 -14.364   9.600  0.00  0.00     0.019 A 
HETATM   10  C           1      -0.343 -14.241   8.907  0.00  0.00     0.037 A 
HETATM   11  C           1      -1.061 -15.327   8.602  0.00  0.00     0.019 A 
HETATM   12  C           1      -0.641 -16.536   8.989  0.00  0.00     0.018 A 
BRANCH  10  13
HETATM   13  C           1      -0.768 -13.019   8.516  0.00  0.00     0.176 C 
HETATM   14  O           1      -1.420 -12.901   7.507  0.00  0.00    -0.646 OA
BRANCH  13  15
HETATM   15  O           1      -0.465 -11.940   9.248  0.00  0.00    -0.773 OA
HETATM   16  H           1      -1.288 -11.429   9.326  0.00  0.00     0.167 HD
ENDBRANCH  13  15
ENDBRANCH  10  13
ENDBRANCH   5   7
ENDBRANCH   4   5
ENDBRANCH   3   4
ENDBRANCH   2   3
ENDBRANCH   1   2
BRANCH   1  17
HETATM   17  C           1       1.387 -18.377   6.337  0.00  0.00     0.293 C 
HETATM   18  O           1       0.460 -18.377   5.562  0.00  0.00    -0.259 OA
BRANCH  17  19
HETATM   19  C           1       2.083 -17.241   6.558  0.00  0.00     0.039 A 
HETATM   20  C           1       3.233 -17.282   7.236  0.00  0.00     0.018 A 
HETATM   21  C           1       3.923 -16.157   7.454  0.00  0.00     0.018 A 
HETATM   22  C           1       3.461 -14.991   6.994  0.00  0.00     0.039 A 
HETATM   23  C           1       2.309 -14.949   6.316  0.00  0.00     0.018 A 
HETATM   24  C           1       1.620 -16.073   6.097  0.00  0.00     0.018 A 
BRANCH  22  25
HETATM   25  C           1       4.157 -13.854   7.213  0.00  0.00     0.293 C 
HETATM   26  O           1       4.590 -13.615   8.315  0.00  0.00    -0.259 OA
BRANCH  25  27
HETATM   27  O           1       4.366 -12.992   6.211  0.00  0.00    -0.315 OA
BRANCH  27  28
HETATM   28  C           1       4.577 -11.705   6.724  0.00  0.00     0.205 C 
BRANCH  28  29
HETATM   29  C           1       5.853 -11.124   6.131  0.00  0.00     0.191 C 
BRANCH  29  30
HETATM   30  O           1       6.187 -11.822   4.962  0.00  0.00    -0.399 OA
HETATM   31  H           1       5.457 -11.735   4.373  0.00  0.00     0.209 HD
ENDBRANCH  29  30
ENDBRANCH  28  29
ENDBRANCH  27  28
ENDBRANCH  25  27
ENDBRANCH  22  25
ENDBRANCH  17  19
ENDBRANCH   1  17
TORSDOF 14
ENDMDL
MODEL 15
REMARK VINA RESULT:      -4.4      2.714      5.361
REMARK  14 active torsions:
REMARK  status: ('A' for Active; 'I' for Inactive)
REMARK    1  A    between atoms: C_3  and  C_7 
REMARK    2  A    between atoms: C_6  and  C_9 
REMARK    3  A    between atoms: C_7  and  O_12 
REMARK    4  A    between atoms: C_9  and  O_11 
REMARK    5  A    between atoms: O_11  and  C_13 
REMARK    6  A    between atoms: C_13  and  C_14 
REMARK    7  A    between atoms: C_14  and  O_15 
REMARK    8  A    between atoms: O_15  and  C_16 
REMARK    9  A    between atoms: C_16  and  C_17 
REMARK   10  A    between atoms: C_21  and  C_24 
REMARK   11  A    between atoms: C_24  and  O_25 
REMARK   12  A    between atoms: O_25  and  C_27 
REMARK   13  A    between atoms: C_27  and  C_28 
REMARK   14  A    between atoms: C_28  and  O_29 
ROOT
HETATM    1  O           1       4.393 -16.761  12.396  0.00  0.00    -0.315 OA
ENDROOT
BRANCH   1   2
HETATM    2  C           1       3.300 -17.638  12.435  0.00  0.00     0.206 C 
BRANCH   2   3
HETATM    3  C           1       3.614 -18.878  11.610  0.00  0.00     0.206 C 
BRANCH   3   4
HETATM    4  O           1       4.130 -18.494  10.364  0.00  0.00    -0.315 OA
BRANCH   4   5
HETATM    5  C           1       3.166 -18.545   9.437  0.00  0.00     0.293 C 
HETATM    6  O           1       2.616 -19.593   9.194  0.00  0.00    -0.259 OA
BRANCH   5   7
HETATM    7  C           1       2.807 -17.425   8.773  0.00  0.00     0.039 A 
HETATM    8  C           1       1.715 -16.749   9.144  0.00  0.00     0.018 A 
HETATM    9  C           1       1.360 -15.640   8.487  0.00  0.00     0.019 A 
HETATM   10  C           1       2.097 -15.207   7.458  0.00  0.00     0.037 A 
HETATM   11  C           1       3.190 -15.883   7.088  0.00  0.00     0.019 A 
HETATM   12  C           1       3.544 -16.992   7.745  0.00  0.00     0.018 A 
BRANCH  10  13
HETATM   13  C           1       1.738 -14.086   6.794  0.00  0.00     0.176 C 
HETATM   14  O           1       2.499 -13.585   6.001  0.00  0.00    -0.646 OA
BRANCH  13  15
HETATM   15  O           1       0.541 -13.532   7.016  0.00  0.00    -0.773 OA
HETATM   16  H           1       0.258 -13.154   6.166  0.00  0.00     0.167 HD
ENDBRANCH  13  15
ENDBRANCH  10  13
ENDBRANCH   5   7
ENDBRANCH   4   5
ENDBRANCH   3   4
ENDBRANCH   2   3
ENDBRANCH   1   2
BRANCH   1  17
HETATM   17  C           1       3.990 -15.549  11.995  0.00  0.00     0.293 C 
HETATM   18  O           1       3.096 -14.986  12.581  0.00  0.00    -0.259 OA
BRANCH  17  19
HETATM   19  C           1       4.583 -14.955  10.937  0.00  0.00     0.039 A 
HETATM   20  C           1       5.729 -15.443  10.452  0.00  0.00     0.018 A 
HETATM   21  C           1       6.315 -14.855   9.403  0.00  0.00     0.018 A 
HETATM   22  C           1       5.755 -13.780   8.840  0.00  0.00     0.039 A 
HETATM   23  C           1       4.609 -13.292   9.326  0.00  0.00     0.018 A 
HETATM   24  C           1       4.023 -13.879  10.373  0.00  0.00     0.018 A 
BRANCH  22  25
HETATM   25  C           1       6.347 -13.186   7.781  0.00  0.00     0.293 C 
HETATM   26  O           1       7.391 -12.596   7.925  0.00  0.00    -0.259 OA
BRANCH  25  27
HETATM   27  O           1       5.777 -13.251   6.572  0.00  0.00    -0.315 OA
BRANCH  27  28
HETATM   28  C           1       6.764 -13.381   5.585  0.00  0.00     0.205 C 
BRANCH  28  29
HETATM   29  C           1       7.167 -14.844   5.457  0.00  0.00     0.191 C 
BRANCH  29  30
HETATM   30  O           1       8.063 -14.991   4.390  0.00  0.00    -0.399 OA
HETATM   31  H           1       8.767 -14.383   4.538  0.00  0.00     0.209 HD
ENDBRANCH  29  30
ENDBRANCH  28  29
ENDBRANCH  27  28
ENDBRANCH  25  27
ENDBRANCH  22  25
ENDBRANCH  17  19
ENDBRANCH   1  17
TORSDOF 14
ENDMDL
MODEL 16
REMARK VINA RESULT:      -4.2      4.861      8.294
REMARK  14 active torsions:
REMARK  status: ('A' for Active; 'I' for Inactive)
REMARK    1  A    between atoms: C_3  and  C_7 
REMARK    2  A    between atoms: C_6  and  C_9 
REMARK    3  A    between atoms: C_7  and  O_12 
REMARK    4  A    between atoms: C_9  and  O_11 
REMARK    5  A    between atoms: O_11  and  C_13 
REMARK    6  A    between atoms: C_13  and  C_14 
REMARK    7  A    between atoms: C_14  and  O_15 
REMARK    8  A    between atoms: O_15  and  C_16 
REMARK    9  A    between atoms: C_16  and  C_17 
REMARK   10  A    between atoms: C_21  and  C_24 
REMARK   11  A    between atoms: C_24  and  O_25 
REMARK   12  A    between atoms: O_25  and  C_27 
REMARK   13  A    between atoms: C_27  and  C_28 
REMARK   14  A    between atoms: C_28  and  O_29 
ROOT
HETATM    1  O           1       3.526 -15.719   6.425  0.00  0.00    -0.315 OA
ENDROOT
BRANCH   1   2
HETATM    2  C           1       4.864 -15.595   6.823  0.00  0.00     0.206 C 
BRANCH   2   3
HETATM    3  C           1       4.925 -15.318   8.319  0.00  0.00     0.206 C 
BRANCH   3   4
HETATM    4  O           1       4.124 -14.208   8.623  0.00  0.00    -0.315 OA
BRANCH   4   5
HETATM    5  C           1       3.355 -14.478   9.685  0.00  0.00     0.293 C 
HETATM    6  O           1       3.864 -14.771  10.740  0.00  0.00    -0.259 OA
BRANCH   5   7
HETATM    7  C           1       2.010 -14.422   9.576  0.00  0.00     0.039 A 
HETATM    8  C           1       1.240 -14.884  10.566  0.00  0.00     0.018 A 
HETATM    9  C           1      -0.092 -14.829  10.459  0.00  0.00     0.019 A 
HETATM   10  C           1      -0.653 -14.311   9.361  0.00  0.00     0.037 A 
HETATM   11  C           1       0.117 -13.848   8.371  0.00  0.00     0.019 A 
HETATM   12  C           1       1.449 -13.903   8.479  0.00  0.00     0.018 A 
BRANCH  10  13
HETATM   13  C           1      -1.999 -14.255   9.253  0.00  0.00     0.176 C 
HETATM   14  O           1      -2.521 -13.323   8.689  0.00  0.00    -0.646 OA
BRANCH  13  15
HETATM   15  O           1      -2.753 -15.232   9.770  0.00  0.00    -0.773 OA
HETATM   16  H           1      -2.972 -15.823   9.030  0.00  0.00     0.167 HD
ENDBRANCH  13  15
ENDBRANCH  10  13
ENDBRANCH   5   7
ENDBRANCH   4   5
ENDBRANCH   3   4
ENDBRANCH   2   3
ENDBRANCH   1   2
BRANCH   1  17
HETATM   17  C           1       3.139 -16.996   6.522  0.00  0.00     0.293 C 
HETATM   18  O           1       3.933 -17.885   6.322  0.00  0.00    -0.259 OA
BRANCH  17  19
HETATM   19  C           1       1.860 -17.293   6.842  0.00  0.00     0.039 A 
HETATM   20  C           1       1.561 -17.717   8.073  0.00  0.00     0.018 A 
HETATM   21  C           1       0.295 -18.010   8.391  0.00  0.00     0.018 A 
HETATM   22  C           1      -0.670 -17.879   7.477  0.00  0.00     0.039 A 
HETATM   23  C           1      -0.371 -17.455   6.244  0.00  0.00     0.018 A 
HETATM   24  C           1       0.894 -17.161   5.927  0.00  0.00     0.018 A 
BRANCH  22  25
HETATM   25  C           1      -1.949 -18.174   7.797  0.00  0.00     0.293 C 
HETATM   26  O           1      -2.274 -19.322   7.986  0.00  0.00    -0.259 OA
BRANCH  25  27
HETATM   27  O           1      -2.856 -17.196   7.903  0.00  0.00    -0.315 OA
BRANCH  27  28
HETATM   28  C           1      -3.871 -17.381   6.955  0.00  0.00     0.205 C 
BRANCH  28  29
HETATM   29  C           1      -4.217 -16.045   6.312  0.00  0.00     0.191 C 
BRANCH  29  30
HETATM   30  O           1      -3.140 -15.160   6.462  0.00  0.00    -0.399 OA
HETATM   31  H           1      -2.674 -15.155   5.643  0.00  0.00     0.209 HD
ENDBRANCH  29  30
ENDBRANCH  28  29
ENDBRANCH  27  28
ENDBRANCH  25  27
ENDBRANCH  22  25
ENDBRANCH  17  19
ENDBRANCH   1  17
TORSDOF 14
ENDMDL
MODEL 17
REMARK VINA RESULT:      -4.2      5.159      8.806
REMARK  14 active torsions:
REMARK  status: ('A' for Active; 'I' for Inactive)
REMARK    1  A    between atoms: C_3  and  C_7 
REMARK    2  A    between atoms: C_6  and  C_9 
REMARK    3  A    between atoms: C_7  and  O_12 
REMARK    4  A    between atoms: C_9  and  O_11 
REMARK    5  A    between atoms: O_11  and  C_13 
REMARK    6  A    between atoms: C_13  and  C_14 
REMARK    7  A    between atoms: C_14  and  O_15 
REMARK    8  A    between atoms: O_15  and  C_16 
REMARK    9  A    between atoms: C_16  and  C_17 
REMARK   10  A    between atoms: C_21  and  C_24 
REMARK   11  A    between atoms: C_24  and  O_25 
REMARK   12  A    between atoms: O_25  and  C_27 
REMARK   13  A    between atoms: C_27  and  C_28 
REMARK   14  A    between atoms: C_28  and  O_29 
ROOT
HETATM    1  O           1       3.434 -15.728   6.405  0.00  0.00    -0.315 OA
ENDROOT
BRANCH   1   2
HETATM    2  C           1       4.717 -15.342   6.818  0.00  0.00     0.206 C 
BRANCH   2   3
HETATM    3  C           1       4.669 -14.897   8.273  0.00  0.00     0.206 C 
BRANCH   3   4
HETATM    4  O           1       3.690 -13.904   8.428  0.00  0.00    -0.315 OA
BRANCH   4   5
HETATM    5  C           1       2.946 -14.163   9.510  0.00  0.00     0.293 C 
HETATM    6  O           1       3.462 -14.208  10.601  0.00  0.00    -0.259 OA
BRANCH   5   7
HETATM    7  C           1       1.618 -14.374   9.381  0.00  0.00     0.039 A 
HETATM    8  C           1       1.001 -14.070   8.234  0.00  0.00     0.018 A 
HETATM    9  C           1      -0.313 -14.279   8.107  0.00  0.00     0.019 A 
HETATM   10  C           1      -1.011 -14.791   9.126  0.00  0.00     0.037 A 
HETATM   11  C           1      -0.393 -15.095  10.273  0.00  0.00     0.019 A 
HETATM   12  C           1       0.921 -14.886  10.400  0.00  0.00     0.018 A 
BRANCH  10  13
HETATM   13  C           1      -2.339 -15.002   8.998  0.00  0.00     0.176 C 
HETATM   14  O           1      -2.952 -14.468   8.104  0.00  0.00    -0.646 OA
BRANCH  13  15
HETATM   15  O           1      -2.976 -15.802   9.861  0.00  0.00    -0.773 OA
HETATM   16  H           1      -3.053 -16.665   9.420  0.00  0.00     0.167 HD
ENDBRANCH  13  15
ENDBRANCH  10  13
ENDBRANCH   5   7
ENDBRANCH   4   5
ENDBRANCH   3   4
ENDBRANCH   2   3
ENDBRANCH   1   2
BRANCH   1  17
HETATM   17  C           1       3.261 -17.037   6.624  0.00  0.00     0.293 C 
HETATM   18  O           1       4.121 -17.822   6.302  0.00  0.00    -0.259 OA
BRANCH  17  19
HETATM   19  C           1       2.125 -17.481   7.204  0.00  0.00     0.039 A 
HETATM   20  C           1       2.154 -17.957   8.453  0.00  0.00     0.018 A 
HETATM   21  C           1       1.029 -18.396   9.027  0.00  0.00     0.018 A 
HETATM   22  C           1      -0.124 -18.358   8.354  0.00  0.00     0.039 A 
HETATM   23  C           1      -0.154 -17.882   7.105  0.00  0.00     0.018 A 
HETATM   24  C           1       0.971 -17.443   6.530  0.00  0.00     0.018 A 
BRANCH  22  25
HETATM   25  C           1      -1.261 -18.801   8.935  0.00  0.00     0.293 C 
HETATM   26  O           1      -1.589 -18.379  10.017  0.00  0.00    -0.259 OA
BRANCH  25  27
HETATM   27  O           1      -2.022 -19.709   8.311  0.00  0.00    -0.315 OA
BRANCH  27  28
HETATM   28  C           1      -1.626 -21.000   8.683  0.00  0.00     0.205 C 
BRANCH  28  29
HETATM   29  C           1      -1.212 -21.783   7.444  0.00  0.00     0.191 C 
BRANCH  29  30
HETATM   30  O           1      -1.147 -23.148   7.752  0.00  0.00    -0.399 OA
HETATM   31  H           1      -1.636 -23.273   8.548  0.00  0.00     0.209 HD
ENDBRANCH  29  30
ENDBRANCH  28  29
ENDBRANCH  27  28
ENDBRANCH  25  27
ENDBRANCH  22  25
ENDBRANCH  17  19
ENDBRANCH   1  17
TORSDOF 14
ENDMDL
MODEL 18
REMARK VINA RESULT:      -4.1      2.930      5.741
REMARK  14 active torsions:
REMARK  status: ('A' for Active; 'I' for Inactive)
REMARK    1  A    between atoms: C_3  and  C_7 
REMARK    2  A    between atoms: C_6  and  C_9 
REMARK    3  A    between atoms: C_7  and  O_12 
REMARK    4  A    between atoms: C_9  and  O_11 
REMARK    5  A    between atoms: O_11  and  C_13 
REMARK    6  A    between atoms: C_13  and  C_14 
REMARK    7  A    between atoms: C_14  and  O_15 
REMARK    8  A    between atoms: O_15  and  C_16 
REMARK    9  A    between atoms: C_16  and  C_17 
REMARK   10  A    between atoms: C_21  and  C_24 
REMARK   11  A    between atoms: C_24  and  O_25 
REMARK   12  A    between atoms: O_25  and  C_27 
REMARK   13  A    between atoms: C_27  and  C_28 
REMARK   14  A    between atoms: C_28  and  O_29 
ROOT
HETATM    1  O           1       4.041 -17.189  11.923  0.00  0.00    -0.315 OA
ENDROOT
BRANCH   1   2
HETATM    2  C           1       3.040 -17.767  12.717  0.00  0.00     0.206 C 
BRANCH   2   3
HETATM    3  C           1       2.499 -19.011  12.026  0.00  0.00     0.206 C 
BRANCH   3   4
HETATM    4  O           1       2.663 -18.885  10.638  0.00  0.00    -0.315 OA
BRANCH   4   5
HETATM    5  C           1       1.501 -18.540  10.072  0.00  0.00     0.293 C 
HETATM    6  O           1       0.550 -19.281  10.144  0.00  0.00    -0.259 OA
BRANCH   5   7
HETATM    7  C           1       1.391 -17.362   9.419  0.00  0.00     0.039 A 
HETATM    8  C           1       1.873 -17.239   8.178  0.00  0.00     0.018 A 
HETATM    9  C           1       1.765 -16.074   7.531  0.00  0.00     0.019 A 
HETATM   10  C           1       1.174 -15.032   8.126  0.00  0.00     0.037 A 
HETATM   11  C           1       0.692 -15.156   9.367  0.00  0.00     0.019 A 
HETATM   12  C           1       0.801 -16.321  10.014  0.00  0.00     0.018 A 
BRANCH  10  13
HETATM   13  C           1       1.064 -13.854   7.473  0.00  0.00     0.176 C 
HETATM   14  O           1       0.609 -12.890   8.039  0.00  0.00    -0.646 OA
BRANCH  13  15
HETATM   15  O           1       1.461 -13.757   6.198  0.00  0.00    -0.773 OA
HETATM   16  H           1       0.693 -13.429   5.702  0.00  0.00     0.167 HD
ENDBRANCH  13  15
ENDBRANCH  10  13
ENDBRANCH   5   7
ENDBRANCH   4   5
ENDBRANCH   3   4
ENDBRANCH   2   3
ENDBRANCH   1   2
BRANCH   1  17
HETATM   17  C           1       3.929 -15.856  11.949  0.00  0.00     0.293 C 
HETATM   18  O           1       3.604 -15.297  12.969  0.00  0.00    -0.259 OA
BRANCH  17  19
HETATM   19  C           1       4.180 -15.136  10.834  0.00  0.00     0.039 A 
HETATM   20  C           1       3.804 -13.855  10.767  0.00  0.00     0.018 A 
HETATM   21  C           1       4.053 -13.142   9.663  0.00  0.00     0.018 A 
HETATM   22  C           1       4.678 -13.709   8.627  0.00  0.00     0.039 A 
HETATM   23  C           1       5.054 -14.990   8.694  0.00  0.00     0.018 A 
HETATM   24  C           1       4.806 -15.703   9.797  0.00  0.00     0.018 A 
BRANCH  22  25
HETATM   25  C           1       4.930 -12.988   7.513  0.00  0.00     0.293 C 
HETATM   26  O           1       4.031 -12.405   6.956  0.00  0.00    -0.259 OA
BRANCH  25  27
HETATM   27  O           1       6.174 -12.923   7.025  0.00  0.00    -0.315 OA
BRANCH  27  28
HETATM   28  C           1       6.828 -11.793   7.535  0.00  0.00     0.205 C 
BRANCH  28  29
HETATM   29  C           1       6.863 -10.703   6.472  0.00  0.00     0.191 C 
BRANCH  29  30
HETATM   30  O           1       7.573  -9.597   6.959  0.00  0.00    -0.399 OA
HETATM   31  H           1       7.856  -9.101   6.209  0.00  0.00     0.209 HD
ENDBRANCH  29  30
ENDBRANCH  28  29
ENDBRANCH  27  28
ENDBRANCH  25  27
ENDBRANCH  22  25
ENDBRANCH  17  19
ENDBRANCH   1  17
TORSDOF 14
ENDMDL
MODEL 19
REMARK VINA RESULT:      -4.1     38.762     40.730
REMARK  14 active torsions:
REMARK  status: ('A' for Active; 'I' for Inactive)
REMARK    1  A    between atoms: C_3  and  C_7 
REMARK    2  A    between atoms: C_6  and  C_9 
REMARK    3  A    between atoms: C_7  and  O_12 
REMARK    4  A    between atoms: C_9  and  O_11 
REMARK    5  A    between atoms: O_11  and  C_13 
REMARK    6  A    between atoms: C_13  and  C_14 
REMARK    7  A    between atoms: C_14  and  O_15 
REMARK    8  A    between atoms: O_15  and  C_16 
REMARK    9  A    between atoms: C_16  and  C_17 
REMARK   10  A    between atoms: C_21  and  C_24 
REMARK   11  A    between atoms: C_24  and  O_25 
REMARK   12  A    between atoms: O_25  and  C_27 
REMARK   13  A    between atoms: C_27  and  C_28 
REMARK   14  A    between atoms: C_28  and  O_29 
ROOT
HETATM    1  O           1     -17.437  21.577  -3.415  0.00  0.00    -0.315 OA
ENDROOT
BRANCH   1   2
HETATM    2  C           1     -17.550  22.534  -4.433  0.00  0.00     0.206 C 
BRANCH   2   3
HETATM    3  C           1     -16.368  23.492  -4.362  0.00  0.00     0.206 C 
BRANCH   3   4
HETATM    4  O           1     -15.957  23.629  -3.028  0.00  0.00    -0.315 OA
BRANCH   4   5
HETATM    5  C           1     -14.647  23.374  -2.927  0.00  0.00     0.293 C 
HETATM    6  O           1     -13.899  23.693  -3.821  0.00  0.00    -0.259 OA
BRANCH   5   7
HETATM    7  C           1     -14.161  22.760  -1.827  0.00  0.00     0.039 A 
HETATM    8  C           1     -12.868  22.427  -1.763  0.00  0.00     0.018 A 
HETATM    9  C           1     -12.387  21.819  -0.674  0.00  0.00     0.019 A 
HETATM   10  C           1     -13.200  21.543   0.352  0.00  0.00     0.037 A 
HETATM   11  C           1     -14.494  21.877   0.288  0.00  0.00     0.019 A 
HETATM   12  C           1     -14.974  22.485  -0.802  0.00  0.00     0.018 A 
BRANCH  10  13
HETATM   13  C           1     -12.714  20.929   1.453  0.00  0.00     0.176 C 
HETATM   14  O           1     -11.898  21.488   2.146  0.00  0.00    -0.646 OA
BRANCH  13  15
HETATM   15  O           1     -13.138  19.701   1.775  0.00  0.00    -0.773 OA
HETATM   16  H           1     -13.436  19.753   2.699  0.00  0.00     0.167 HD
ENDBRANCH  13  15
ENDBRANCH  10  13
ENDBRANCH   5   7
ENDBRANCH   4   5
ENDBRANCH   3   4
ENDBRANCH   2   3
ENDBRANCH   1   2
BRANCH   1  17
HETATM   17  C           1     -16.893  20.456  -3.903  0.00  0.00     0.293 C 
HETATM   18  O           1     -17.271  20.011  -4.960  0.00  0.00    -0.259 OA
BRANCH  17  19
HETATM   19  C           1     -15.921  19.821  -3.212  0.00  0.00     0.039 A 
HETATM   20  C           1     -16.186  19.298  -2.012  0.00  0.00     0.018 A 
HETATM   21  C           1     -15.224  18.669  -1.329  0.00  0.00     0.018 A 
HETATM   22  C           1     -13.997  18.563  -1.846  0.00  0.00     0.039 A 
HETATM   23  C           1     -13.731  19.087  -3.047  0.00  0.00     0.018 A 
HETATM   24  C           1     -14.693  19.715  -3.731  0.00  0.00     0.018 A 
BRANCH  22  25
HETATM   25  C           1     -13.024  17.928  -1.156  0.00  0.00     0.293 C 
HETATM   26  O           1     -13.260  17.469  -0.065  0.00  0.00    -0.259 OA
BRANCH  25  27
HETATM   27  O           1     -11.799  17.808  -1.682  0.00  0.00    -0.315 OA
BRANCH  27  28
HETATM   28  C           1     -10.850  18.357  -0.810  0.00  0.00     0.205 C 
BRANCH  28  29
HETATM   29  C           1      -9.824  19.150  -1.609  0.00  0.00     0.191 C 
BRANCH  29  30
HETATM   30  O           1      -8.532  18.778  -1.211  0.00  0.00    -0.399 OA
HETATM   31  H           1      -8.534  17.841  -1.115  0.00  0.00     0.209 HD
ENDBRANCH  29  30
ENDBRANCH  28  29
ENDBRANCH  27  28
ENDBRANCH  25  27
ENDBRANCH  22  25
ENDBRANCH  17  19
ENDBRANCH   1  17
TORSDOF 14
ENDMDL
MODEL 20
REMARK VINA RESULT:      -4.1     39.043     41.167
REMARK  14 active torsions:
REMARK  status: ('A' for Active; 'I' for Inactive)
REMARK    1  A    between atoms: C_3  and  C_7 
REMARK    2  A    between atoms: C_6  and  C_9 
REMARK    3  A    between atoms: C_7  and  O_12 
REMARK    4  A    between atoms: C_9  and  O_11 
REMARK    5  A    between atoms: O_11  and  C_13 
REMARK    6  A    between atoms: C_13  and  C_14 
REMARK    7  A    between atoms: C_14  and  O_15 
REMARK    8  A    between atoms: O_15  and  C_16 
REMARK    9  A    between atoms: C_16  and  C_17 
REMARK   10  A    between atoms: C_21  and  C_24 
REMARK   11  A    between atoms: C_24  and  O_25 
REMARK   12  A    between atoms: O_25  and  C_27 
REMARK   13  A    between atoms: C_27  and  C_28 
REMARK   14  A    between atoms: C_28  and  O_29 
ROOT
HETATM    1  O           1     -17.077  23.614  -2.437  0.00  0.00    -0.315 OA
ENDROOT
BRANCH   1   2
HETATM    2  C           1     -16.983  23.601  -3.835  0.00  0.00     0.206 C 
BRANCH   2   3
HETATM    3  C           1     -15.521  23.708  -4.246  0.00  0.00     0.206 C 
BRANCH   3   4
HETATM    4  O           1     -15.078  22.467  -4.728  0.00  0.00    -0.315 OA
BRANCH   4   5
HETATM    5  C           1     -13.889  22.168  -4.190  0.00  0.00     0.293 C 
HETATM    6  O           1     -12.986  22.968  -4.238  0.00  0.00    -0.259 OA
BRANCH   5   7
HETATM    7  C           1     -13.699  20.970  -3.594  0.00  0.00     0.039 A 
HETATM    8  C           1     -14.558  19.970  -3.816  0.00  0.00     0.018 A 
HETATM    9  C           1     -14.370  18.785  -3.227  0.00  0.00     0.019 A 
HETATM   10  C           1     -13.324  18.600  -2.415  0.00  0.00     0.037 A 
HETATM   11  C           1     -12.465  19.601  -2.193  0.00  0.00     0.019 A 
HETATM   12  C           1     -12.653  20.786  -2.783  0.00  0.00     0.018 A 
BRANCH  10  13
HETATM   13  C           1     -13.134  17.403  -1.819  0.00  0.00     0.176 C 
HETATM   14  O           1     -12.625  17.346  -0.725  0.00  0.00    -0.646 OA
BRANCH  13  15
HETATM   15  O           1     -13.510  16.279  -2.440  0.00  0.00    -0.773 OA
HETATM   16  H           1     -12.834  16.107  -3.116  0.00  0.00     0.167 HD
ENDBRANCH  13  15
ENDBRANCH  10  13
ENDBRANCH   5   7
ENDBRANCH   4   5
ENDBRANCH   3   4
ENDBRANCH   2   3
ENDBRANCH   1   2
BRANCH   1  17
HETATM   17  C           1     -17.376  22.389  -1.989  0.00  0.00     0.293 C 
HETATM   18  O           1     -18.405  21.856  -2.329  0.00  0.00    -0.259 OA
BRANCH  17  19
HETATM   19  C           1     -16.527  21.748  -1.157  0.00  0.00     0.039 A 
HETATM   20  C           1     -16.737  20.466  -0.844  0.00  0.00     0.018 A 
HETATM   21  C           1     -15.896  19.832  -0.020  0.00  0.00     0.018 A 
HETATM   22  C           1     -14.845  20.479   0.491  0.00  0.00     0.039 A 
HETATM   23  C           1     -14.634  21.762   0.178  0.00  0.00     0.018 A 
HETATM   24  C           1     -15.474  22.396  -0.645  0.00  0.00     0.018 A 
BRANCH  22  25
HETATM   25  C           1     -13.995  19.838   1.323  0.00  0.00     0.293 C 
HETATM   26  O           1     -12.812  20.075   1.275  0.00  0.00    -0.259 OA
BRANCH  25  27
HETATM   27  O           1     -14.464  18.941   2.198  0.00  0.00    -0.315 OA
BRANCH  27  28
HETATM   28  C           1     -14.109  19.316   3.501  0.00  0.00     0.205 C 
BRANCH  28  29
HETATM   29  C           1     -15.097  20.352   4.020  0.00  0.00     0.191 C 
BRANCH  29  30
HETATM   30  O           1     -14.399  21.483   4.464  0.00  0.00    -0.399 OA
HETATM   31  H           1     -14.701  21.667   5.337  0.00  0.00     0.209 HD
ENDBRANCH  29  30
ENDBRANCH  28  29
ENDBRANCH  27  28
ENDBRANCH  25  27
ENDBRANCH  22  25
ENDBRANCH  17  19
ENDBRANCH   1  17
TORSDOF 14
ENDMDL
