REMARK  14 active torsions:
REMARK  status: ('A' for Active; 'I' for Inactive)
REMARK    1  A    between atoms: C_3  and  C_7 
REMARK    2  A    between atoms: C_6  and  C_9 
REMARK    3  A    between atoms: C_7  and  O_12 
REMARK    4  A    between atoms: C_9  and  O_11 
REMARK    5  A    between atoms: O_11  and  C_13 
REMARK    6  A    between atoms: C_13  and  C_14 
REMARK    7  A    between atoms: C_14  and  O_15 
REMARK    8  A    between atoms: O_15  and  C_16 
REMARK    9  A    between atoms: C_16  and  C_17 
REMARK   10  A    between atoms: C_21  and  C_24 
REMARK   11  A    between atoms: C_24  and  O_25 
REMARK   12  A    between atoms: O_25  and  C_27 
REMARK   13  A    between atoms: C_27  and  C_28 
REMARK   14  A    between atoms: C_28  and  O_29 
ROOT
HETATM    1  O           1      -1.723   3.780   0.248  0.00  0.00    -0.315 OA
ENDROOT
BRANCH   1   2
HETATM    2  C           1      -1.477   2.400   0.248  0.00  0.00     0.206 C 
BRANCH   2   3
HETATM    3  C           1      -2.801   1.648   0.248  0.00  0.00     0.206 C 
BRANCH   3   4
HETATM    4  O           1      -2.555   0.267   0.248  0.00  0.00    -0.315 OA
BRANCH   4   5
HETATM    5  C           1      -3.714  -0.402   0.248  0.00  0.00     0.293 C 
HETATM    6  O           1      -4.760   0.202   0.248  0.00  0.00    -0.259 OA
BRANCH   5   7
HETATM    7  C           1      -3.714  -1.753   0.248  0.00  0.00     0.039 A 
HETATM    8  C           1      -4.872  -2.421   0.248  0.00  0.00     0.018 A 
HETATM    9  C           1      -4.872  -3.758   0.248  0.00  0.00     0.019 A 
HETATM   10  C           1      -3.714  -4.427   0.248  0.00  0.00     0.037 A 
HETATM   11  C           1      -2.556  -3.758   0.248  0.00  0.00     0.019 A 
HETATM   12  C           1      -2.556  -2.421   0.248  0.00  0.00     0.018 A 
BRANCH  10  13
HETATM   13  C           1      -3.714  -5.778   0.248  0.00  0.00     0.176 C 
HETATM   14  O           1      -2.668  -6.382   0.248  0.00  0.00    -0.646 OA
BRANCH  13  15
HETATM   15  O           1      -4.873  -6.447   0.248  0.00  0.00    -0.773 OA
HETATM   16  H           1      -4.639  -7.390   0.248  0.00  0.00     0.167 HD
ENDBRANCH  13  15
ENDBRANCH  10  13
ENDBRANCH   5   7
ENDBRANCH   4   5
ENDBRANCH   3   4
ENDBRANCH   2   3
ENDBRANCH   1   2
BRANCH   1  17
HETATM   17  C           1      -0.564   4.449   0.248  0.00  0.00     0.293 C 
HETATM   18  O           1      -0.564   5.657   0.248  0.00  0.00    -0.259 OA
BRANCH  17  19
HETATM   19  C           1       0.606   3.774   0.248  0.00  0.00     0.039 A 
HETATM   20  C           1       1.525   4.029   1.184  0.00  0.00     0.018 A 
HETATM   21  C           1       2.683   3.360   1.184  0.00  0.00     0.018 A 
HETATM   22  C           1       2.922   2.437   0.248  0.00  0.00     0.039 A 
HETATM   23  C           1       2.003   2.182  -0.689  0.00  0.00     0.018 A 
HETATM   24  C           1       0.845   2.850  -0.689  0.00  0.00     0.018 A 
BRANCH  22  25
HETATM   25  C           1       4.092   1.761   0.248  0.00  0.00     0.293 C 
HETATM   26  O           1       4.922   1.992   1.094  0.00  0.00    -0.259 OA
BRANCH  25  27
HETATM   27  O           1       4.331   0.837  -0.690  0.00  0.00    -0.315 OA
BRANCH  27  28
HETATM   28  C           1       5.598   0.272  -0.491  0.00  0.00     0.205 C 
BRANCH  28  29
HETATM   29  C           1       5.861  -0.778  -1.562  0.00  0.00     0.191 C 
BRANCH  29  30
HETATM   30  O           1       7.128  -1.343  -1.363  0.00  0.00    -0.399 OA
HETATM   31  H           1       7.252  -1.984  -2.042  0.00  0.00     0.209 HD
ENDBRANCH  29  30
ENDBRANCH  28  29
ENDBRANCH  27  28
ENDBRANCH  25  27
ENDBRANCH  22  25
ENDBRANCH  17  19
ENDBRANCH   1  17
TORSDOF 14
