@<TRIPOS>MOLECULE
PET
 47 48 0 0 0
SMALL
GASTEIGER

@<TRIPOS>ATOM
      1 C           3.5430  -14.2480   10.7360 C.3     1  PET        0.1268
      2 C           4.6240  -14.5420   11.7680 C.3     1  PET        0.1268
      3 C           6.5480  -13.4790   11.3140 C.2     1  PET        0.3393
      4 C           6.9150  -12.7320   10.2500 C.ar    1  PET        0.0590
      5 C           8.0320  -13.0300    9.5790 C.ar    1  PET       -0.0470
      6 C           8.3960  -12.2910    8.5260 C.ar    1  PET       -0.0470
      7 C           7.6430  -11.2540    8.1440 C.ar    1  PET        0.0589
      8 C           6.5260  -10.9560    8.8160 C.ar    1  PET       -0.0470
      9 C           6.1620  -11.6950    9.8690 C.ar    1  PET       -0.0470
     10 C           8.0110  -10.5070    7.0800 C.2     1  PET        0.3368
     11 C           3.6880  -14.1620    8.4990 C.2     1  PET        0.3393
     12 C           4.6540  -14.1360    7.5560 C.ar    1  PET        0.0590
     13 C           4.6440  -13.1880    6.6140 C.ar    1  PET       -0.0470
     14 C           5.6020  -13.1620    5.6800 C.ar    1  PET       -0.0470
     15 C           6.5690  -14.0840    5.6890 C.ar    1  PET        0.0590
     16 C           6.5790  -15.0330    6.6310 C.ar    1  PET       -0.0470
     17 C           5.6220  -15.0590    7.5650 C.ar    1  PET       -0.0470
     18 C           7.5360  -14.0580    4.7460 C.2     1  PET        0.3393
     19 C           7.9030  -12.8160    2.9150 C.3     1  PET        0.1158
     20 C           7.7660  -11.3610    2.4880 C.3     1  PET        0.0784
     21 O           3.8110  -14.9660    9.5620 O.3     1  PET       -0.4577
     22 O           5.8710  -14.6180   11.1300 O.3     1  PET       -0.4577
     23 O           6.8300  -13.1170   12.4320 O.2     1  PET       -0.2450
     24 O           9.1590  -10.5170    6.7030 O.2     1  PET       -0.2451
     25 O           7.1040   -9.7570    6.4430 O.3     1  PET       -0.4771
     26 O           2.7120  -13.4580    8.3830 O.2     1  PET       -0.2450
     27 O           7.9700  -15.0930    4.2980 O.2     1  PET       -0.2450
     28 O           8.0140  -12.8870    4.3100 O.3     1  PET       -0.4588
     29 O           7.0100  -10.6630    3.4390 O.3     1  PET       -0.3917
     30 H           6.8040  -10.2840    5.6840 H       1  PET        0.2954
     31 H           6.9130   -9.7820    3.1200 H       1  PET        0.2095
     32 H           2.5900  -14.5415   11.1240 H       1  PET        0.0732
     33 H           3.5321  -13.2003   10.5190 H       1  PET        0.0732
     34 H           4.4128  -15.4734   12.2504 H       1  PET        0.0732
     35 H           4.6435  -13.7592   12.4972 H       1  PET        0.0732
     36 H           8.6132  -13.8302    9.8737 H       1  PET        0.0626
     37 H           9.2584  -12.5209    8.0078 H       1  PET        0.0626
     38 H           5.9449  -10.1555    8.5218 H       1  PET        0.0626
     39 H           5.2999  -11.4650   10.3876 H       1  PET        0.0626
     40 H           3.8972  -12.4758    6.6069 H       1  PET        0.0626
     41 H           5.5939  -12.4298    4.9528 H       1  PET        0.0626
     42 H           7.3254  -15.7456    6.6373 H       1  PET        0.0626
     43 H           5.6305  -15.7910    8.2924 H       1  PET        0.0626
     44 H           8.7777  -13.2382    2.4660 H       1  PET        0.0721
     45 H           7.0392  -13.3625    2.5986 H       1  PET        0.0721
     46 H           7.2759  -11.3130    1.5380 H       1  PET        0.0591
     47 H           8.7376  -10.9193    2.4116 H       1  PET        0.0591
@<TRIPOS>BOND
     1     1    21    1
     2     1     2    1
     3     1    32    1
     4     1    33    1
     5     2    22    1
     6     2    34    1
     7     2    35    1
     8     3     4    1
     9     3    22    1
    10     3    23    2
    11     4     5   ar
    12     4     9   ar
    13     5     6   ar
    14     5    36    1
    15     6     7   ar
    16     6    37    1
    17     7    10    1
    18     7     8   ar
    19     8     9   ar
    20     8    38    1
    21     9    39    1
    22    10    25    1
    23    10    24    2
    24    11    12    1
    25    11    26    2
    26    11    21    1
    27    12    13   ar
    28    12    17   ar
    29    13    14   ar
    30    13    40    1
    31    14    15   ar
    32    14    41    1
    33    15    18    1
    34    15    16   ar
    35    16    17   ar
    36    16    42    1
    37    17    43    1
    38    18    27    2
    39    18    28    1
    40    19    20    1
    41    19    28    1
    42    19    44    1
    43    19    45    1
    44    20    29    1
    45    20    46    1
    46    20    47    1
    47    25    30    1
    48    29    31    1
